LAMMPS (13 Jan 2014)
dimension       3
boundary        p p p
units           metal

atom_style	atomic
neighbor	0.3 bin
neigh_modify	every 10 delay 0 check no

# Number of steps for the equilibration steps
variable        eqsteps equal 50000

# Number of steps to run our NPH simulation
variable        simsteps equal 200000

# Our trial melting temperature
variable	T equal 900.0
variable	T2 equal 2*900

# Some high temperature to melt the crystal
variable	Tmelt equal 2000.0

#System size
variable	nx equal 4
variable	ny equal 4
variable	nz equal 20
variable	nzhalf equal 20*0.5
variable	a equal 4.050
variable	length equal 20*4.05

lattice		fcc 4.05
Lattice spacing in x,y,z = 4.05 4.05 4.05

region         box block 0 4 0 4 0 20
create_box     1 box
Created orthogonal box = (0 0 0) to (16.2 16.2 81)
create_atoms   1 box
Created 1280 atoms

mass		1 26.9815

pair_style	eam/alloy
pair_coeff	* * Al_potential.alloy Al

velocity	all create 1800 1337

# Create a dump file. This can be visualized with
# e.g. OVITO (http://www.ovito.org/)
dump		id all atom 1000 atomsdump

# 1 fs timestep
timestep	0.001
thermo_style	custom step temp etotal pe press pxx pyy pzz lx ly lz

# output every 100th timestep
thermo		100

# Equilibration the whole system to the trial melting temperature
fix		1 all npt temp 900 900 1 iso 0 0 3 drag 1.0
run		50000
Step Temp TotEng PotEng Press Pxx Pyy Pzz Lx Ly Lz
0         1800   -4050.7776   -4348.3603     10888.69    10475.171    10773.356    11417.544         16.2         16.2           81
Averages over the last 251 of 501 rows, steps 25000 to 50000:
Temp TotEng PotEng Press Pxx Pyy Pzz Lx Ly Lz
900.66 -4032 -4180.9 -21.8806 -32.1973 -151.978 118.533 16.4837 16.4837 82.4184
Loop time of 245.068 on 1 procs for 50000 steps with 1280 atoms

Pair  time (%) = 216.663 (88.4094)
Neigh time (%) = 19.6137 (8.00339)
Comm  time (%) = 3.29781 (1.34567)
Outpt time (%) = 0.110891 (0.0452492)
Other time (%) = 5.3823 (2.19625)

unfix		1

# Melt half the system
region  liquid block INF INF INF INF INF 10
group	liquid_group region liquid
638 atoms in group liquid_group

# Heat up one side to Tmelt to make sure it is melted
fix 2 liquid_group npt temp 2000 2000 1 z 0 0 10 drag 1.0
run		50000
Step Temp TotEng PotEng Press Pxx Pyy Pzz Lx Ly Lz
50000    899.88628   -4032.0585   -4180.8311    381.92676    60.399877    843.22785    242.15257    16.480489    16.480489    82.402443
Averages over the last 251 of 501 rows, steps 75000 to 100000:
Temp TotEng PotEng Press Pxx Pyy Pzz Lx Ly Lz
1996.44 -3598.57 -3928.62 4053.05 5794.9 6443.01 -78.7595 16.4805 16.4805 89.9053
Loop time of 227.856 on 1 procs for 50000 steps with 1280 atoms

Pair  time (%) = 201.906 (88.6116)
Neigh time (%) = 18.4664 (8.10444)
Comm  time (%) = 3.1665 (1.3897)
Outpt time (%) = 0.109222 (0.0479347)
Other time (%) = 4.20692 (1.84631)

unfix		2

# Cool it down again to trial melting temperature
fix 3 liquid_group npt temp 900     900     1 z 0 0 10 drag 1.0
run		50000
Step Temp TotEng PotEng Press Pxx Pyy Pzz Lx Ly Lz
100000    1980.9385   -3596.6546   -3924.1507    4244.4941    7104.2284    5629.1087   0.14529122    16.480489    16.480489    89.956901
Averages over the last 251 of 501 rows, steps 125000 to 150000:
Temp TotEng PotEng Press Pxx Pyy Pzz Lx Ly Lz
919.036 -4028.7 -4180.64 -553.278 -1211.92 -395.245 -52.6633 16.4805 16.4805 82.5525
Loop time of 236.715 on 1 procs for 50000 steps with 1280 atoms

Pair  time (%) = 210.04 (88.7312)
Neigh time (%) = 19.1393 (8.0854)
Comm  time (%) = 3.21561 (1.35843)
Outpt time (%) = 0.109312 (0.0461789)
Other time (%) = 4.21059 (1.77876)

unfix		3

# Run simulation
fix		4 all nph x 0 0 10 y 0 0 10 z 0 0 1 couple xy drag 1.0
run		200000
Step Temp TotEng PotEng Press Pxx Pyy Pzz Lx Ly Lz
150000    888.73528   -4036.7172   -4183.6462   -225.49999   -974.66252    606.79812   -308.63558    16.480489    16.480489    82.404253
Averages over the last 1001 of 2001 rows, steps 250000 to 350000:
Temp TotEng PotEng Press Pxx Pyy Pzz Lx Ly Lz
879.099 -4039.94 -4185.27 -5.427 -32.4366 16.6903 -0.534671 16.4551 16.4551 82.5749
Loop time of 959.181 on 1 procs for 200000 steps with 1280 atoms

Pair  time (%) = 853.232 (88.9542)
Neigh time (%) = 73.0075 (7.61144)
Comm  time (%) = 12.0874 (1.26017)
Outpt time (%) = 0.437176 (0.0455781)
Other time (%) = 20.4168 (2.12857)

unfix		4
