LAMMPS (13 Jan 2014)
dimension       3
boundary        p p p
units           metal

atom_style	atomic
neighbor	0.3 bin
neigh_modify	every 10 delay 0 check no

# Number of steps for the equilibration steps
variable        eqsteps equal 50000

# Number of steps to run our NPH simulation
variable        simsteps equal 200000

# Our trial melting temperature
variable	T equal 950.0
variable	T2 equal 2*950

# Some high temperature to melt the crystal
variable	Tmelt equal 2000.0

#System size
variable	nx equal 4
variable	ny equal 4
variable	nz equal 20
variable	nzhalf equal 20*0.5
variable	a equal 4.050
variable	length equal 20*4.05

lattice		fcc 4.05
Lattice spacing in x,y,z = 4.05 4.05 4.05

region         box block 0 4 0 4 0 20
create_box     1 box
Created orthogonal box = (0 0 0) to (16.2 16.2 81)
create_atoms   1 box
Created 1280 atoms

mass		1 26.9815

pair_style	eam/alloy
pair_coeff	* * Al_potential.alloy Al

velocity	all create 1900 1337

# Create a dump file. This can be visualized with
# e.g. OVITO (http://www.ovito.org/)
dump		id all atom 1000 atomsdump

# 1 fs timestep
timestep	0.001
thermo_style	custom step temp etotal pe press pxx pyy pzz lx ly lz

# output every 100th timestep
thermo		100

# Equilibration the whole system to the trial melting temperature
fix		1 all npt temp 950 950 1 iso 0 0 3 drag 1.0
run		50000
Step Temp TotEng PotEng Press Pxx Pyy Pzz Lx Ly Lz
0         1900   -4034.2452   -4348.3603    11719.381    11282.889    11597.639    12277.615         16.2         16.2           81
Averages over the last 251 of 501 rows, steps 25000 to 50000:
Temp TotEng PotEng Press Pxx Pyy Pzz Lx Ly Lz
949.868 -4012.67 -4169.7 -5.65222 -46.853 -196.052 225.948 16.5051 16.5051 82.5254
Loop time of 243.568 on 1 procs for 50000 steps with 1280 atoms

Pair  time (%) = 215.186 (88.3476)
Neigh time (%) = 19.5764 (8.03735)
Comm  time (%) = 3.29893 (1.35442)
Outpt time (%) = 0.111371 (0.0457248)
Other time (%) = 5.39492 (2.21495)

unfix		1

# Melt half the system
region  liquid block INF INF INF INF INF 10
group	liquid_group region liquid
640 atoms in group liquid_group

# Heat up one side to Tmelt to make sure it is melted
fix 2 liquid_group npt temp 2000 2000 1 z 0 0 10 drag 1.0
run		50000
Step Temp TotEng PotEng Press Pxx Pyy Pzz Lx Ly Lz
50000    957.95994   -4012.5966   -4170.9701   -150.89578   -1012.3348   -639.97542    1199.6229    16.505568    16.505568    82.527842
Averages over the last 251 of 501 rows, steps 75000 to 100000:
Temp TotEng PotEng Press Pxx Pyy Pzz Lx Ly Lz
1992.78 -3594.34 -3923.79 4233.33 6141.36 6654.93 -96.3057 16.5056 16.5056 89.7356
Loop time of 227.339 on 1 procs for 50000 steps with 1280 atoms

Pair  time (%) = 201.375 (88.5793)
Neigh time (%) = 18.4478 (8.11469)
Comm  time (%) = 3.16254 (1.39111)
Outpt time (%) = 0.1286 (0.0565677)
Other time (%) = 4.22475 (1.85835)

unfix		2

# Cool it down again to trial melting temperature
fix 3 liquid_group npt temp 950     950     1 z 0 0 10 drag 1.0
run		50000
Step Temp TotEng PotEng Press Pxx Pyy Pzz Lx Ly Lz
100000     2023.904   -3593.0687   -3927.6681    4130.4229    4973.6394    8410.2621   -992.63278    16.505568    16.505568    89.713165
Averages over the last 251 of 501 rows, steps 125000 to 150000:
Temp TotEng PotEng Press Pxx Pyy Pzz Lx Ly Lz
968.088 -4001.44 -4161.49 -313.65 -552.442 -383.36 -5.1481 16.5056 16.5056 82.7924
Loop time of 235.295 on 1 procs for 50000 steps with 1280 atoms

Pair  time (%) = 208.719 (88.7054)
Neigh time (%) = 19.0269 (8.08642)
Comm  time (%) = 3.20645 (1.36274)
Outpt time (%) = 0.110061 (0.0467757)
Other time (%) = 4.23221 (1.79868)

unfix		3

# Run simulation
fix		4 all nph x 0 0 10 y 0 0 10 z 0 0 1 couple xy drag 1.0
run		200000
Step Temp TotEng PotEng Press Pxx Pyy Pzz Lx Ly Lz
150000    944.78483   -4016.0905   -4172.2859   -65.712893   -356.56241   -389.31903    548.74276    16.505568    16.505568    82.480571
Averages over the last 1001 of 2001 rows, steps 250000 to 350000:
Temp TotEng PotEng Press Pxx Pyy Pzz Lx Ly Lz
933.109 -4019.34 -4173.61 -7.09072 38.7597 -42.9792 -17.0526 16.4801 16.4801 82.6633
Loop time of 957.88 on 1 procs for 200000 steps with 1280 atoms

Pair  time (%) = 851.343 (88.8779)
Neigh time (%) = 73.5283 (7.67615)
Comm  time (%) = 12.166 (1.2701)
Outpt time (%) = 0.439365 (0.0458685)
Other time (%) = 20.4031 (2.13003)

unfix		4
