LAMMPS (13 Jan 2014)
dimension       3
boundary        p p p
units           metal

atom_style	atomic
neighbor	0.3 bin
neigh_modify	every 10 delay 0 check no

# Number of steps for the equilibration steps
variable        eqsteps equal 50000

# Number of steps to run our NPH simulation
variable        simsteps equal 200000

# Our trial melting temperature
variable	T equal 1225.0
variable	T2 equal 2*1225

# Some high temperature to melt the crystal
variable	Tmelt equal 2000.0

#System size
variable	nx equal 10
variable	ny equal 10
variable	nz equal 20
variable	nzhalf equal 20*0.5
variable	a equal 4.050
variable	length equal 20*4.05

lattice		fcc 4.05
Lattice spacing in x,y,z = 4.05 4.05 4.05

region         box block 0 10 0 10 0 20
create_box     1 box
Created orthogonal box = (0 0 0) to (40.5 40.5 81)
create_atoms   1 box
Created 8000 atoms

mass		1 26.9815

pair_style	eam/alloy
pair_coeff	* * Al_potential.alloy Al

velocity	all create 2450 1337

# Create a dump file. This can be visualized with
# e.g. OVITO (http://www.ovito.org/)
dump		id all atom 1000 atomsdump

# 1 fs timestep
timestep	0.001
thermo_style	custom step temp etotal pe press pxx pyy pzz lx ly lz

# output every 100th timestep
thermo		100

# Equilibration the whole system to the trial melting temperature
fix		1 all npt temp 1225 1225 1 iso 0 0 3 drag 1.0
run		50000
Step Temp TotEng PotEng Press Pxx Pyy Pzz Lx Ly Lz
0         2450    -24644.07   -27177.252    16301.545    16116.473    16097.328    16690.834         40.5         40.5           81
Averages over the last 251 of 501 rows, steps 25000 to 50000:
Temp TotEng PotEng Press Pxx Pyy Pzz Lx Ly Lz
1224.88 -24335.6 -25602.1 -14.9816 30.7275 -47.6541 -28.0182 41.6162 41.6162 83.2325
Loop time of 1447.23 on 1 procs for 50000 steps with 8000 atoms

Pair  time (%) = 1306.71 (90.2902)
Neigh time (%) = 99.3231 (6.86298)
Comm  time (%) = 8.57918 (0.5928)
Outpt time (%) = 0.624652 (0.0431619)
Other time (%) = 31.9957 (2.21082)

unfix		1

# Melt half the system
region  liquid block INF INF INF INF INF 10
group	liquid_group region liquid
4007 atoms in group liquid_group

# Heat up one side to Tmelt to make sure it is melted
fix 2 liquid_group npt temp 2000 2000 1 z 0 0 10 drag 1.0
run		50000
Step Temp TotEng PotEng Press Pxx Pyy Pzz Lx Ly Lz
50000    1232.6482   -24326.067   -25600.566   -260.91013    -561.7898    174.17761   -395.11819    41.621981    41.621981    83.243962
Averages over the last 251 of 501 rows, steps 75000 to 100000:
Temp TotEng PotEng Press Pxx Pyy Pzz Lx Ly Lz
1979.98 -22380.8 -24428 3754.01 5573.18 5626.85 61.9857 41.622 41.622 88.8206
Loop time of 1372.28 on 1 procs for 50000 steps with 8000 atoms

Pair  time (%) = 1243.05 (90.583)
Neigh time (%) = 95.6689 (6.97154)
Comm  time (%) = 8.29139 (0.604207)
Outpt time (%) = 0.623235 (0.0454161)
Other time (%) = 24.644 (1.79585)

unfix		2

# Cool it down again to trial melting temperature
fix 3 liquid_group npt temp 1225     1225     1 z 0 0 10 drag 1.0
run		50000
Step Temp TotEng PotEng Press Pxx Pyy Pzz Lx Ly Lz
100000    1992.7558   -22339.207   -24399.621    3498.1846     4519.767    6304.3457   -329.55909    41.621981    41.621981    88.998409
Averages over the last 251 of 501 rows, steps 125000 to 150000:
Temp TotEng PotEng Press Pxx Pyy Pzz Lx Ly Lz
1229.64 -24031.3 -25302.7 603.035 729.584 1057.6 21.9173 41.622 41.622 84.4175
Loop time of 1391.98 on 1 procs for 50000 steps with 8000 atoms

Pair  time (%) = 1260.8 (90.5756)
Neigh time (%) = 97.6782 (7.01719)
Comm  time (%) = 8.265 (0.593756)
Outpt time (%) = 0.624268 (0.0448473)
Other time (%) = 24.6183 (1.76857)
