LAMMPS (13 Jan 2014)
dimension       3
boundary        p p p
units           metal

atom_style	atomic
neighbor	0.3 bin
neigh_modify	every 10 delay 0 check no

# Number of steps for the equilibration steps
variable        eqsteps equal 50000

# Number of steps to run our NPH simulation
variable        simsteps equal 200000

# Our trial melting temperature
variable	T equal 1100.0
variable	T2 equal 2*1100

# Some high temperature to melt the crystal
variable	Tmelt equal 2000.0

#System size
variable	nx equal 4
variable	ny equal 4
variable	nz equal 20
variable	nzhalf equal 20*0.5
variable	a equal 4.050
variable	length equal 20*4.05

lattice		fcc 4.05
Lattice spacing in x,y,z = 4.05 4.05 4.05

region         box block 0 4 0 4 0 20
create_box     1 box
Created orthogonal box = (0 0 0) to (16.2 16.2 81)
create_atoms   1 box
Created 1280 atoms

mass		1 26.9815

pair_style	eam/alloy
pair_coeff	* * Al_potential.alloy Al

velocity	all create 2200 1337

# Create a dump file. This can be visualized with
# e.g. OVITO (http://www.ovito.org/)
dump		id all atom 1000 atomsdump

# 1 fs timestep
timestep	0.001
thermo_style	custom step temp etotal pe press pxx pyy pzz lx ly lz

# output every 100th timestep
thermo		100

# Equilibration the whole system to the trial melting temperature
fix		1 all npt temp 1100 1100 1 iso 0 0 3 drag 1.0
run		50000
Step Temp TotEng PotEng Press Pxx Pyy Pzz Lx Ly Lz
0         2200   -3984.6481   -4348.3603    14211.452     13706.04    14070.488    14857.829         16.2         16.2           81
Averages over the last 251 of 501 rows, steps 25000 to 50000:
Temp TotEng PotEng Press Pxx Pyy Pzz Lx Ly Lz
1099.77 -3952.31 -4134.12 -14.7798 -80.8806 -156.795 193.336 16.5737 16.5737 82.8686
Loop time of 240.41 on 1 procs for 50000 steps with 1280 atoms

Pair  time (%) = 212.786 (88.5098)
Neigh time (%) = 18.8171 (7.82709)
Comm  time (%) = 3.28681 (1.36717)
Outpt time (%) = 0.109881 (0.0457059)
Other time (%) = 5.40978 (2.25024)

unfix		1

# Melt half the system
region  liquid block INF INF INF INF INF 10
group	liquid_group region liquid
646 atoms in group liquid_group

# Heat up one side to Tmelt to make sure it is melted
fix 2 liquid_group npt temp 2000 2000 1 z 0 0 10 drag 1.0
run		50000
Step Temp TotEng PotEng Press Pxx Pyy Pzz Lx Ly Lz
50000    1112.7023   -3951.3141   -4135.2702   -333.95912    783.48112   -1239.2083   -546.15021     16.57524     16.57524      82.8762
Averages over the last 251 of 501 rows, steps 75000 to 100000:
Temp TotEng PotEng Press Pxx Pyy Pzz Lx Ly Lz
2000.76 -3578.72 -3909.49 3784.9 6002.55 5352.08 0.0591947 16.5752 16.5752 89.5317
Loop time of 225.604 on 1 procs for 50000 steps with 1280 atoms

Pair  time (%) = 199.81 (88.5669)
Neigh time (%) = 18.2679 (8.09736)
Comm  time (%) = 3.14539 (1.39421)
Outpt time (%) = 0.125433 (0.0555988)
Other time (%) = 4.25483 (1.88598)

unfix		2

# Cool it down again to trial melting temperature
fix 3 liquid_group npt temp 1100     1100     1 z 0 0 10 drag 1.0
run		50000
Step Temp TotEng PotEng Press Pxx Pyy Pzz Lx Ly Lz
100000    1966.9489   -3579.6032   -3904.7865    4752.0624    6788.8377     3483.256    3984.0935     16.57524     16.57524    89.438677
Averages over the last 251 of 501 rows, steps 125000 to 150000:
Temp TotEng PotEng Press Pxx Pyy Pzz Lx Ly Lz
1101.04 -3902.96 -4084.99 614.873 1295.42 562.548 -13.3479 16.5752 16.5752 84.0256
Loop time of 230.85 on 1 procs for 50000 steps with 1280 atoms

Pair  time (%) = 204.926 (88.7703)
Neigh time (%) = 18.3943 (7.96808)
Comm  time (%) = 3.15658 (1.36737)
Outpt time (%) = 0.109784 (0.0475563)
Other time (%) = 4.26298 (1.84664)

unfix		3

# Run simulation
fix		4 all nph x 0 0 10 y 0 0 10 z 0 0 1 couple xy drag 1.0
run		200000
Step Temp TotEng PotEng Press Pxx Pyy Pzz Lx Ly Lz
150000    1095.4335   -3904.1612   -4085.2623    1614.5026    1636.2991    2407.7499    799.45884     16.57524     16.57524    83.841493
Averages over the last 1001 of 2001 rows, steps 250000 to 350000:
Temp TotEng PotEng Press Pxx Pyy Pzz Lx Ly Lz
1026.64 -3914.68 -4084.41 -3.56853 -32.9739 34.9119 -12.6436 16.4727 16.4727 85.1268
Loop time of 930.046 on 1 procs for 200000 steps with 1280 atoms

Pair  time (%) = 824.115 (88.61)
Neigh time (%) = 72.8306 (7.83085)
Comm  time (%) = 12.1985 (1.3116)
Outpt time (%) = 0.444956 (0.0478423)
Other time (%) = 20.4578 (2.19966)

unfix		4
