LAMMPS (13 Jan 2014)
dimension       3
boundary        p p p
units           metal

atom_style	atomic
neighbor	0.3 bin
neigh_modify	every 10 delay 0 check no

# Number of steps for the equilibration steps
variable        eqsteps equal 50000

# Number of steps to run our NPH simulation
variable        simsteps equal 200000

# Our trial melting temperature
variable	T equal 750.0
variable	T2 equal 2*750

# Some high temperature to melt the crystal
variable	Tmelt equal 2000.0

#System size
variable	nx equal 10
variable	ny equal 10
variable	nz equal 20
variable	nzhalf equal 20*0.5
variable	a equal 4.050
variable	length equal 20*4.05

lattice		fcc 4.05
Lattice spacing in x,y,z = 4.05 4.05 4.05

region         box block 0 10 0 10 0 20
create_box     1 box
Created orthogonal box = (0 0 0) to (40.5 40.5 81)
create_atoms   1 box
Created 8000 atoms

mass		1 26.9815

pair_style	eam/alloy
pair_coeff	* * Al_potential.alloy Al

velocity	all create 1500 1337

# Create a dump file. This can be visualized with
# e.g. OVITO (http://www.ovito.org/)
dump		id all atom 1000 atomsdump

# 1 fs timestep
timestep	0.001
thermo_style	custom step temp etotal pe press pxx pyy pzz lx ly lz

# output every 100th timestep
thermo		100

# Equilibration the whole system to the trial melting temperature
fix		1 all npt temp 750 750 1 iso 0 0 3 drag 1.0
run		50000
Step Temp TotEng PotEng Press Pxx Pyy Pzz Lx Ly Lz
0         1500   -25626.324   -27177.252    8404.8025    8291.4929    8279.7718    8643.1426         40.5         40.5           81
Averages over the last 251 of 501 rows, steps 25000 to 50000:
Temp TotEng PotEng Press Pxx Pyy Pzz Lx Ly Lz
749.941 -25551 -26326.4 0.0832261 -23.1634 3.74231 19.6707 41.059 41.059 82.1181
Loop time of 1499.27 on 1 procs for 50000 steps with 8000 atoms

Pair  time (%) = 1357.59 (90.5495)
Neigh time (%) = 100.358 (6.69377)
Comm  time (%) = 8.63934 (0.576235)
Outpt time (%) = 0.640328 (0.0427092)
Other time (%) = 32.0506 (2.13774)

unfix		1

# Melt half the system
region  liquid block INF INF INF INF INF 10
group	liquid_group region liquid
4016 atoms in group liquid_group

# Heat up one side to Tmelt to make sure it is melted
fix 2 liquid_group npt temp 2000 2000 1 z 0 0 10 drag 1.0
run		50000
Step Temp TotEng PotEng Press Pxx Pyy Pzz Lx Ly Lz
50000    753.12454   -25550.754   -26329.448   -215.58551   -597.65983   -281.02623    231.92952     41.06035     41.06035    82.120699
Averages over the last 251 of 501 rows, steps 75000 to 100000:
Temp TotEng PotEng Press Pxx Pyy Pzz Lx Ly Lz
1893.12 -22692.2 -24649.6 5025.91 7436.79 7264.34 376.607 41.0603 41.0603 89.7105
Loop time of 1411.8 on 1 procs for 50000 steps with 8000 atoms

Pair  time (%) = 1281.66 (90.7822)
Neigh time (%) = 96.4494 (6.83165)
Comm  time (%) = 8.38826 (0.594153)
Outpt time (%) = 0.620803 (0.0439724)
Other time (%) = 24.679 (1.74805)

unfix		2

# Cool it down again to trial melting temperature
fix 3 liquid_group npt temp 750     750     1 z 0 0 10 drag 1.0
run		50000
Step Temp TotEng PotEng Press Pxx Pyy Pzz Lx Ly Lz
100000     2006.298   -22473.853   -24548.268    4984.5065    6966.4771    8241.7924   -254.74992     41.06035     41.06035    90.315825
Averages over the last 251 of 501 rows, steps 125000 to 150000:
Temp TotEng PotEng Press Pxx Pyy Pzz Lx Ly Lz
797.057 -25415.9 -26240.1 27.0248 117.738 -6.49093 -30.1727 41.0603 41.0603 82.4828
Loop time of 1448.5 on 1 procs for 50000 steps with 8000 atoms

Pair  time (%) = 1316.11 (90.86)
Neigh time (%) = 98.7222 (6.81547)
Comm  time (%) = 8.42051 (0.581326)
Outpt time (%) = 0.622132 (0.0429501)
Other time (%) = 24.6288 (1.7003)

unfix		3

# Run simulation
fix		4 all nph x 0 0 10 y 0 0 10 z 0 0 1 couple xy drag 1.0
run		200000
Step Temp TotEng PotEng Press Pxx Pyy Pzz Lx Ly Lz
150000    751.90346   -25534.832   -26312.264   -156.62474   -257.08026    -141.5971   -71.196861     41.06035     41.06035    82.177155
Averages over the last 1001 of 2001 rows, steps 250000 to 350000:
Temp TotEng PotEng Press Pxx Pyy Pzz Lx Ly Lz
754.785 -25537.1 -26317.6 -5.52357 22.8772 -38.6969 -0.750933 41.0621 41.0621 82.1471
Loop time of 5922.1 on 1 procs for 200000 steps with 8000 atoms

Pair  time (%) = 5370.47 (90.6852)
Neigh time (%) = 396.189 (6.69)
Comm  time (%) = 31.8774 (0.538279)
Outpt time (%) = 2.49383 (0.0421105)
Other time (%) = 121.071 (2.04439)

unfix		4
