LAMMPS (13 Jan 2014)
dimension       3
boundary        p p p
units           metal

atom_style	atomic
neighbor	0.3 bin
neigh_modify	every 10 delay 0 check no

# Number of steps for the equilibration steps
variable        eqsteps equal 50000

# Number of steps to run our NPH simulation
variable        simsteps equal 200000

# Our trial melting temperature
variable	T equal 825.0
variable	T2 equal 2*825

# Some high temperature to melt the crystal
variable	Tmelt equal 2000.0

#System size
variable	nx equal 10
variable	ny equal 10
variable	nz equal 20
variable	nzhalf equal 20*0.5
variable	a equal 4.050
variable	length equal 20*4.05

lattice		fcc 4.05
Lattice spacing in x,y,z = 4.05 4.05 4.05

region         box block 0 10 0 10 0 20
create_box     1 box
Created orthogonal box = (0 0 0) to (40.5 40.5 81)
create_atoms   1 box
Created 8000 atoms

mass		1 26.9815

pair_style	eam/alloy
pair_coeff	* * Al_potential.alloy Al

velocity	all create 1650 1337

# Create a dump file. This can be visualized with
# e.g. OVITO (http://www.ovito.org/)
dump		id all atom 1000 atomsdump

# 1 fs timestep
timestep	0.001
thermo_style	custom step temp etotal pe press pxx pyy pzz lx ly lz

# output every 100th timestep
thermo		100

# Equilibration the whole system to the trial melting temperature
fix		1 all npt temp 825 825 1 iso 0 0 3 drag 1.0
run		50000
Step Temp TotEng PotEng Press Pxx Pyy Pzz Lx Ly Lz
0         1650   -25471.231   -27177.252    9651.6565    9527.0161    9514.1229    9913.8307         40.5         40.5           81
Averages over the last 251 of 501 rows, steps 25000 to 50000:
Temp TotEng PotEng Press Pxx Pyy Pzz Lx Ly Lz
824.697 -25376.2 -26228.9 6.46903 23.6154 -14.4568 10.2484 41.1331 41.1331 82.2661
Loop time of 1489.38 on 1 procs for 50000 steps with 8000 atoms

Pair  time (%) = 1348.08 (90.5124)
Neigh time (%) = 100.183 (6.72646)
Comm  time (%) = 8.66694 (0.581914)
Outpt time (%) = 0.625169 (0.041975)
Other time (%) = 31.8312 (2.1372)

unfix		1

# Melt half the system
region  liquid block INF INF INF INF INF 10
group	liquid_group region liquid
4024 atoms in group liquid_group

# Heat up one side to Tmelt to make sure it is melted
fix 2 liquid_group npt temp 2000 2000 1 z 0 0 10 drag 1.0
run		50000
Step Temp TotEng PotEng Press Pxx Pyy Pzz Lx Ly Lz
50000    824.14161    -25376.16   -26228.283    102.28964    305.33631    119.14735   -117.61475    41.131209    41.131209    82.262417
Averages over the last 251 of 501 rows, steps 75000 to 100000:
Temp TotEng PotEng Press Pxx Pyy Pzz Lx Ly Lz
1915.12 -22629.2 -24609.4 4973.53 7437.87 7171.41 311.308 41.1312 41.1312 89.654
Loop time of 1406.95 on 1 procs for 50000 steps with 8000 atoms

Pair  time (%) = 1277.02 (90.7657)
Neigh time (%) = 96.3433 (6.84769)
Comm  time (%) = 8.38867 (0.596233)
Outpt time (%) = 0.625324 (0.0444455)
Other time (%) = 24.5643 (1.74593)

unfix		2

# Cool it down again to trial melting temperature
fix 3 liquid_group npt temp 825     825     1 z 0 0 10 drag 1.0
run		50000
Step Temp TotEng PotEng Press Pxx Pyy Pzz Lx Ly Lz
100000    1993.0291   -22454.249   -24514.945    5053.0685    7763.4681    7297.3985    98.339041    41.131209    41.131209    90.113367
Averages over the last 251 of 501 rows, steps 125000 to 150000:
Temp TotEng PotEng Press Pxx Pyy Pzz Lx Ly Lz
871.829 -25208.6 -26110 323.122 680.103 364.046 -74.782 41.1312 41.1312 82.7469
Loop time of 1440.01 on 1 procs for 50000 steps with 8000 atoms

Pair  time (%) = 1307.86 (90.8226)
Neigh time (%) = 98.5681 (6.84494)
Comm  time (%) = 8.43393 (0.585684)
Outpt time (%) = 0.633698 (0.0440064)
Other time (%) = 24.5205 (1.7028)

unfix		3

# Run simulation
fix		4 all nph x 0 0 10 y 0 0 10 z 0 0 1 couple xy drag 1.0
run		200000
Step Temp TotEng PotEng Press Pxx Pyy Pzz Lx Ly Lz
150000    822.30356   -25348.038   -26198.261   -105.58734    96.186827   -79.610038   -333.33881    41.131209    41.131209    82.406532
Averages over the last 1001 of 2001 rows, steps 250000 to 350000:
Temp TotEng PotEng Press Pxx Pyy Pzz Lx Ly Lz
836.073 -25350.7 -26215.2 -7.86094 -23.0898 0.933401 -1.42644 41.1395 41.1395 82.3063
Loop time of 5883.25 on 1 procs for 200000 steps with 8000 atoms

Pair  time (%) = 5333.33 (90.6528)
Neigh time (%) = 395.215 (6.71763)
Comm  time (%) = 31.9572 (0.54319)
Outpt time (%) = 2.48021 (0.0421572)
Other time (%) = 120.269 (2.04425)

unfix		4
