LAMMPS (13 Jan 2014)
dimension       3
boundary        p p p
units           metal

atom_style	atomic
neighbor	0.3 bin
neigh_modify	every 10 delay 0 check no

# Number of steps for the equilibration steps
variable        eqsteps equal 50000

# Number of steps to run our NPH simulation
variable        simsteps equal 200000

# Our trial melting temperature
variable	T equal 1075.0
variable	T2 equal 2*1075

# Some high temperature to melt the crystal
variable	Tmelt equal 2000.0

#System size
variable	nx equal 10
variable	ny equal 10
variable	nz equal 20
variable	nzhalf equal 20*0.5
variable	a equal 4.050
variable	length equal 20*4.05

lattice		fcc 4.05
Lattice spacing in x,y,z = 4.05 4.05 4.05

region         box block 0 10 0 10 0 20
create_box     1 box
Created orthogonal box = (0 0 0) to (40.5 40.5 81)
create_atoms   1 box
Created 8000 atoms

mass		1 26.9815

pair_style	eam/alloy
pair_coeff	* * Al_potential.alloy Al

velocity	all create 2150 1337

# Create a dump file. This can be visualized with
# e.g. OVITO (http://www.ovito.org/)
dump		id all atom 1000 atomsdump

# 1 fs timestep
timestep	0.001
thermo_style	custom step temp etotal pe press pxx pyy pzz lx ly lz

# output every 100th timestep
thermo		100

# Equilibration the whole system to the trial melting temperature
fix		1 all npt temp 1075 1075 1 iso 0 0 3 drag 1.0
run		50000
Step Temp TotEng PotEng Press Pxx Pyy Pzz Lx Ly Lz
0         2150   -24954.255   -27177.252    13807.837    13645.426    13628.626    14149.458         40.5         40.5           81
Averages over the last 251 of 501 rows, steps 25000 to 50000:
Temp TotEng PotEng Press Pxx Pyy Pzz Lx Ly Lz
1074.55 -24763.7 -25874.8 7.37766 42.022 4.22937 -24.1184 41.4056 41.4056 82.8112
Loop time of 1464.28 on 1 procs for 50000 steps with 8000 atoms

Pair  time (%) = 1323.28 (90.3711)
Neigh time (%) = 99.713 (6.80971)
Comm  time (%) = 8.65496 (0.591074)
Outpt time (%) = 0.626574 (0.0427906)
Other time (%) = 31.9987 (2.18529)

unfix		1

# Melt half the system
region  liquid block INF INF INF INF INF 10
group	liquid_group region liquid
4054 atoms in group liquid_group

# Heat up one side to Tmelt to make sure it is melted
fix 2 liquid_group npt temp 2000 2000 1 z 0 0 10 drag 1.0
run		50000
Step Temp TotEng PotEng Press Pxx Pyy Pzz Lx Ly Lz
50000    1088.7219   -24760.387   -25886.073   -255.55301   -585.79369   -245.54633    64.680984    41.407687    41.407687    82.815374
Averages over the last 251 of 501 rows, steps 75000 to 100000:
Temp TotEng PotEng Press Pxx Pyy Pzz Lx Ly Lz
1961.18 -22468.7 -24496.5 4076.07 5936.38 6123.06 168.789 41.4077 41.4077 89.2511
Loop time of 1388.05 on 1 procs for 50000 steps with 8000 atoms

Pair  time (%) = 1258.36 (90.6562)
Neigh time (%) = 95.9676 (6.91382)
Comm  time (%) = 8.35083 (0.601621)
Outpt time (%) = 0.620038 (0.0446695)
Other time (%) = 24.7591 (1.78373)

unfix		2

# Cool it down again to trial melting temperature
fix 3 liquid_group npt temp 1075     1075     1 z 0 0 10 drag 1.0
run		50000
Step Temp TotEng PotEng Press Pxx Pyy Pzz Lx Ly Lz
100000     1997.441   -22390.042     -24455.3    4325.3295    6689.4583    6545.1003   -258.57025    41.407687    41.407687    89.505046
Averages over the last 251 of 501 rows, steps 125000 to 150000:
Temp TotEng PotEng Press Pxx Pyy Pzz Lx Ly Lz
1087.55 -24456.1 -25580.5 553.011 705.449 959.854 -6.2684 41.4077 41.4077 83.9433
Loop time of 1409.9 on 1 procs for 50000 steps with 8000 atoms

Pair  time (%) = 1278.11 (90.6522)
Neigh time (%) = 98.1076 (6.95848)
Comm  time (%) = 8.33727 (0.591338)
Outpt time (%) = 0.620674 (0.0440226)
Other time (%) = 24.7289 (1.75395)

unfix		3

# Run simulation
fix		4 all nph x 0 0 10 y 0 0 10 z 0 0 1 couple xy drag 1.0
run		200000
Step Temp TotEng PotEng Press Pxx Pyy Pzz Lx Ly Lz
150000    1074.2365   -24503.316   -25614.025    362.94589    864.06393    973.25695    -748.4832    41.407687    41.407687    83.799373
Averages over the last 1001 of 2001 rows, steps 250000 to 350000:
Temp TotEng PotEng Press Pxx Pyy Pzz Lx Ly Lz
1026.2 -24513.4 -25574.4 -15.8406 -30.4911 -13.4769 -3.55381 41.163 41.163 85.0115
Loop time of 5701.37 on 1 procs for 200000 steps with 8000 atoms

Pair  time (%) = 5151.35 (90.3529)
Neigh time (%) = 394.069 (6.91183)
Comm  time (%) = 32.3747 (0.567841)
Outpt time (%) = 2.63215 (0.046167)
Other time (%) = 120.94 (2.12125)

unfix		4
