LAMMPS (13 Jan 2014)
dimension       3
boundary        p p p
units           metal

atom_style	atomic
neighbor	0.3 bin
neigh_modify	every 10 delay 0 check no

# Number of steps for the equilibration steps
variable        eqsteps equal 50000

# Number of steps to run our NPH simulation
variable        simsteps equal 200000

# Our trial melting temperature
variable	T equal 1200.0
variable	T2 equal 2*1200

# Some high temperature to melt the crystal
variable	Tmelt equal 2000.0

#System size
variable	nx equal 4
variable	ny equal 4
variable	nz equal 20
variable	nzhalf equal 20*0.5
variable	a equal 4.050
variable	length equal 20*4.05

lattice		fcc 4.05
Lattice spacing in x,y,z = 4.05 4.05 4.05

region         box block 0 4 0 4 0 20
create_box     1 box
Created orthogonal box = (0 0 0) to (16.2 16.2 81)
create_atoms   1 box
Created 1280 atoms

mass		1 26.9815

pair_style	eam/alloy
pair_coeff	* * Al_potential.alloy Al

velocity	all create 2400 1337

# Create a dump file. This can be visualized with
# e.g. OVITO (http://www.ovito.org/)
dump		id all atom 1000 atomsdump

# 1 fs timestep
timestep	0.001
thermo_style	custom step temp etotal pe press pxx pyy pzz lx ly lz

# output every 100th timestep
thermo		100

# Equilibration the whole system to the trial melting temperature
fix		1 all npt temp 1200 1200 1 iso 0 0 3 drag 1.0
run		50000
Step Temp TotEng PotEng Press Pxx Pyy Pzz Lx Ly Lz
0         2400   -3951.5833   -4348.3603    15872.833    15321.475    15719.054    16577.971         16.2         16.2           81
Averages over the last 251 of 501 rows, steps 25000 to 50000:
Temp TotEng PotEng Press Pxx Pyy Pzz Lx Ly Lz
1198.03 -3906.43 -4104.49 2.93272 -21.4455 -195.753 225.997 16.6306 16.6306 83.1532
Loop time of 237.563 on 1 procs for 50000 steps with 1280 atoms

Pair  time (%) = 210.195 (88.4797)
Neigh time (%) = 18.6006 (7.82973)
Comm  time (%) = 3.26978 (1.37638)
Outpt time (%) = 0.109868 (0.046248)
Other time (%) = 5.38768 (2.26789)

unfix		1

# Melt half the system
region  liquid block INF INF INF INF INF 10
group	liquid_group region liquid
650 atoms in group liquid_group

# Heat up one side to Tmelt to make sure it is melted
fix 2 liquid_group npt temp 2000 2000 1 z 0 0 10 drag 1.0
run		50000
Step Temp TotEng PotEng Press Pxx Pyy Pzz Lx Ly Lz
50000    1182.7544   -3902.6215   -4098.1588   -599.79504   -2765.0227    1460.2615   -494.62397    16.643641    16.643641    83.218206
Averages over the last 251 of 501 rows, steps 75000 to 100000:
Temp TotEng PotEng Press Pxx Pyy Pzz Lx Ly Lz
2000.74 -3565.26 -3896.03 3994.41 5387.93 6635.06 -39.7404 16.6436 16.6436 89.2091
Loop time of 223.177 on 1 procs for 50000 steps with 1280 atoms

Pair  time (%) = 198.166 (88.7935)
Neigh time (%) = 17.5365 (7.85766)
Comm  time (%) = 3.11878 (1.39745)
Outpt time (%) = 0.11021 (0.0493823)
Other time (%) = 4.24485 (1.90201)

unfix		2

# Cool it down again to trial melting temperature
fix 3 liquid_group npt temp 1200     1200     1 z 0 0 10 drag 1.0
run		50000
Step Temp TotEng PotEng Press Pxx Pyy Pzz Lx Ly Lz
100000    2044.0353   -3565.3463   -3903.2738    2037.8229    3718.7311    3867.8113   -1473.0737    16.643641    16.643641    89.334885
Averages over the last 251 of 501 rows, steps 125000 to 150000:
Temp TotEng PotEng Press Pxx Pyy Pzz Lx Ly Lz
1201.42 -3848.28 -4046.9 663.871 293.498 1661.1 37.0188 16.6436 16.6436 84.4639
Loop time of 227.808 on 1 procs for 50000 steps with 1280 atoms

Pair  time (%) = 202.33 (88.816)
Neigh time (%) = 17.9879 (7.8961)
Comm  time (%) = 3.10609 (1.36347)
Outpt time (%) = 0.150236 (0.0659487)
Other time (%) = 4.23384 (1.85852)
