LAMMPS (13 Jan 2014)
dimension       3
boundary        p p p
units           metal

atom_style	atomic
neighbor	0.3 bin
neigh_modify	every 10 delay 0 check no

# Number of steps for the equilibration steps
variable        eqsteps equal 50000

# Number of steps to run our NPH simulation
variable        simsteps equal 200000

# Our trial melting temperature
variable	T equal 1100.0
variable	T2 equal 2*1100

# Some high temperature to melt the crystal
variable	Tmelt equal 2000.0

#System size
variable	nx equal 4
variable	ny equal 4
variable	nz equal 20
variable	nzhalf equal 20*0.5
variable	a equal 2.87
variable	length equal 20*2.87

lattice		bcc 2.87
Lattice spacing in x,y,z = 2.87 2.87 2.87

region         box block 0 4 0 4 0 20
create_box     1 box
Created orthogonal box = (0 0 0) to (11.48 11.48 57.4)
create_atoms   1 box
Created 640 atoms

mass		1 26.9815

pair_style	eam/alloy
pair_coeff	* * Al_potential.alloy Al

velocity	all create 2200 1337

# Create a dump file. This can be visualized with
# e.g. OVITO (http://www.ovito.org/)
dump		id all atom 1000 atomsdump

# 1 fs timestep
timestep	0.001
thermo_style	custom step temp etotal pe press pxx pyy pzz lx ly lz

# output every 100th timestep
thermo		100

# Equilibration the whole system to the trial melting temperature
fix		1 all npt temp 1100 1100 1 iso 0 0 3 drag 1.0
run		50000
Step Temp TotEng PotEng Press Pxx Pyy Pzz Lx Ly Lz
0         2200   -1622.9721    -1804.686    542818.14    542069.45    542458.09    543926.89        11.48        11.48         57.4
Averages over the last 251 of 501 rows, steps 25000 to 50000:
Temp TotEng PotEng Press Pxx Pyy Pzz Lx Ly Lz
1099.75 -1970.93 -2061.77 -8.67057 -99.2509 268.053 -194.813 13.1678 13.1678 65.8388
Loop time of 114.451 on 1 procs for 50000 steps with 640 atoms

Pair  time (%) = 99.9871 (87.3626)
Neigh time (%) = 9.37324 (8.18976)
Comm  time (%) = 2.16922 (1.89533)
Outpt time (%) = 0.10214 (0.0892439)
Other time (%) = 2.81894 (2.46302)

unfix		1

# Melt half the system
region  liquid block INF INF INF INF INF 10
group	liquid_group region liquid
319 atoms in group liquid_group

# Heat up one side to Tmelt to make sure it is melted
fix 2 liquid_group npt temp 2000 2000 1 z 0 0 10 drag 1.0
run		50000
Step Temp TotEng PotEng Press Pxx Pyy Pzz Lx Ly Lz
50000    1115.0801   -1970.3796   -2062.4821   -557.93463    -4905.202    2616.0135    615.38468    13.167769    13.167769    65.838845
Averages over the last 251 of 501 rows, steps 75000 to 100000:
Temp TotEng PotEng Press Pxx Pyy Pzz Lx Ly Lz
2003.74 -1789.81 -1955.32 1280.31 -283.309 4370.94 -246.707 13.1678 13.1678 71.2268
Loop time of 111.29 on 1 procs for 50000 steps with 640 atoms

Pair  time (%) = 97.7573 (87.8401)
Neigh time (%) = 9.17461 (8.24386)
Comm  time (%) = 2.0534 (1.84509)
Outpt time (%) = 0.0776563 (0.0697782)
Other time (%) = 2.22713 (2.0012)

unfix		2

# Cool it down again to trial melting temperature
fix 3 liquid_group npt temp 1100     1100     1 z 0 0 10 drag 1.0
run		50000
Step Temp TotEng PotEng Press Pxx Pyy Pzz Lx Ly Lz
100000     2027.071    -1789.467   -1956.8975   -682.87713   -4640.5961    4011.4331   -1419.4683    13.167769    13.167769    71.268269
Averages over the last 251 of 501 rows, steps 125000 to 150000:
Temp TotEng PotEng Press Pxx Pyy Pzz Lx Ly Lz
1112.11 -1965.65 -2057.51 -274.473 -3153.7 2407.47 -77.1872 13.1678 13.1678 66.0161
Loop time of 112.709 on 1 procs for 50000 steps with 640 atoms

Pair  time (%) = 98.962 (87.8034)
Neigh time (%) = 9.34902 (8.29486)
Comm  time (%) = 2.09192 (1.85604)
Outpt time (%) = 0.0611374 (0.0542438)
Other time (%) = 2.24451 (1.99143)

unfix		3

# Run simulation
fix		4 all nph x 0 0 10 y 0 0 10 z 0 0 1 couple xy drag 1.0
run		200000
Step Temp TotEng PotEng Press Pxx Pyy Pzz Lx Ly Lz
150000    1108.3161   -1973.6524   -2065.1962   -588.64506   -4927.9154    3177.0476   -15.067328    13.167769    13.167769    65.733146
Averages over the last 1001 of 2001 rows, steps 250000 to 350000:
Temp TotEng PotEng Press Pxx Pyy Pzz Lx Ly Lz
1067.36 -1977.84 -2066 -12.5949 -77.4687 66.2533 -26.5693 13.1433 13.1433 65.8831
Loop time of 452.971 on 1 procs for 200000 steps with 640 atoms

Pair  time (%) = 396.365 (87.5033)
Neigh time (%) = 37.5556 (8.29095)
Comm  time (%) = 8.07341 (1.78232)
Outpt time (%) = 0.245085 (0.054106)
Other time (%) = 10.7325 (2.36936)

unfix		4
