LAMMPS (13 Jan 2014)
dimension       3
boundary        p p p
units           metal

atom_style	atomic
neighbor	0.3 bin
neigh_modify	every 10 delay 0 check no

# Number of steps for the equilibration steps
variable        eqsteps equal 50000

# Number of steps to run our NPH simulation
variable        simsteps equal 200000

# Our trial melting temperature
variable	T equal 1375.0
variable	T2 equal 2*1375

# Some high temperature to melt the crystal
variable	Tmelt equal 2000.0

#System size
variable	nx equal 10
variable	ny equal 10
variable	nz equal 20
variable	nzhalf equal 20*0.5
variable	a equal 4.050
variable	length equal 20*4.05

lattice		fcc 4.05
Lattice spacing in x,y,z = 4.05 4.05 4.05

region         box block 0 10 0 10 0 20
create_box     1 box
Created orthogonal box = (0 0 0) to (40.5 40.5 81)
create_atoms   1 box
Created 8000 atoms

mass		1 26.9815

pair_style	eam/alloy
pair_coeff	* * Al_potential.alloy Al

velocity	all create 2750 1337

# Create a dump file. This can be visualized with
# e.g. OVITO (http://www.ovito.org/)
dump		id all atom 1000 atomsdump

# 1 fs timestep
timestep	0.001
thermo_style	custom step temp etotal pe press pxx pyy pzz lx ly lz

# output every 100th timestep
thermo		100

# Equilibration the whole system to the trial melting temperature
fix		1 all npt temp 1375 1375 1 iso 0 0 3 drag 1.0
run		50000
Step Temp TotEng PotEng Press Pxx Pyy Pzz Lx Ly Lz
0         2750   -24333.884   -27177.252    18795.253    18587.519     18566.03     19232.21         40.5         40.5           81
Averages over the last 251 of 501 rows, steps 25000 to 50000:
Temp TotEng PotEng Press Pxx Pyy Pzz Lx Ly Lz
1373.84 -23296.7 -24717.2 3.5984 123.011 -30.5019 -81.7136 42.3065 42.3065 84.6129
Loop time of 1403.49 on 1 procs for 50000 steps with 8000 atoms

Pair  time (%) = 1264.03 (90.0635)
Neigh time (%) = 98.942 (7.04973)
Comm  time (%) = 8.14669 (0.580461)
Outpt time (%) = 0.620467 (0.044209)
Other time (%) = 31.7487 (2.26213)

unfix		1

# Melt half the system
region  liquid block INF INF INF INF INF 10
group	liquid_group region liquid
4001 atoms in group liquid_group

# Heat up one side to Tmelt to make sure it is melted
fix 2 liquid_group npt temp 2000 2000 1 z 0 0 10 drag 1.0
run		50000
Step Temp TotEng PotEng Press Pxx Pyy Pzz Lx Ly Lz
50000    1377.4212   -23293.109   -24717.296   -162.54917   -248.64068   -146.95521   -92.051612    42.305341    42.305341    84.610682
Averages over the last 251 of 501 rows, steps 75000 to 100000:
Temp TotEng PotEng Press Pxx Pyy Pzz Lx Ly Lz
1997.23 -21975.9 -24041 3859.89 5613.69 5979.79 -13.8235 42.3053 42.3053 88.0576
Loop time of 1332.44 on 1 procs for 50000 steps with 8000 atoms

Pair  time (%) = 1203.96 (90.3577)
Neigh time (%) = 95.5367 (7.17006)
Comm  time (%) = 7.89261 (0.592343)
Outpt time (%) = 0.620077 (0.0465369)
Other time (%) = 24.4283 (1.83335)

unfix		2

# Cool it down again to trial melting temperature
fix 3 liquid_group npt temp 1375     1375     1 z 0 0 10 drag 1.0
run		50000
Step Temp TotEng PotEng Press Pxx Pyy Pzz Lx Ly Lz
100000    1988.9061     -21970.8   -24027.233    4421.6899    5898.9407    6872.9728    493.15624    42.305341    42.305341    88.073279
Averages over the last 251 of 501 rows, steps 125000 to 150000:
Temp TotEng PotEng Press Pxx Pyy Pzz Lx Ly Lz
1377.97 -23304.6 -24729.4 -171.74 -495.235 5.51272 -25.4995 42.3053 42.3053 84.5676
Loop time of 1351.47 on 1 procs for 50000 steps with 8000 atoms

Pair  time (%) = 1221.6 (90.3902)
Neigh time (%) = 97.1197 (7.18622)
Comm  time (%) = 7.85487 (0.581209)
Outpt time (%) = 0.621589 (0.0459935)
Other time (%) = 24.278 (1.79641)
