LAMMPS (13 Jan 2014)
dimension       3
boundary        p p p
units           metal

atom_style	atomic
neighbor	0.3 bin
neigh_modify	every 10 delay 0 check no

# Number of steps for the equilibration steps
variable        eqsteps equal 50000

# Number of steps to run our NPH simulation
variable        simsteps equal 200000

# Our trial melting temperature
variable	T equal 1250.0
variable	T2 equal 2*1250

# Some high temperature to melt the crystal
variable	Tmelt equal 2000.0

#System size
variable	nx equal 10
variable	ny equal 10
variable	nz equal 20
variable	nzhalf equal 20*0.5
variable	a equal 4.050
variable	length equal 20*4.05

lattice		fcc 4.05
Lattice spacing in x,y,z = 4.05 4.05 4.05

region         box block 0 10 0 10 0 20
create_box     1 box
Created orthogonal box = (0 0 0) to (40.5 40.5 81)
create_atoms   1 box
Created 8000 atoms

mass		1 26.9815

pair_style	eam/alloy
pair_coeff	* * Al_potential.alloy Al

velocity	all create 2500 1337

# Create a dump file. This can be visualized with
# e.g. OVITO (http://www.ovito.org/)
dump		id all atom 1000 atomsdump

# 1 fs timestep
timestep	0.001
thermo_style	custom step temp etotal pe press pxx pyy pzz lx ly lz

# output every 100th timestep
thermo		100

# Equilibration the whole system to the trial melting temperature
fix		1 all npt temp 1250 1250 1 iso 0 0 3 drag 1.0
run		50000
Step Temp TotEng PotEng Press Pxx Pyy Pzz Lx Ly Lz
0         2500   -24592.372   -27177.252    16717.163    16528.314    16508.779    17114.396         40.5         40.5           81
Averages over the last 251 of 501 rows, steps 25000 to 50000:
Temp TotEng PotEng Press Pxx Pyy Pzz Lx Ly Lz
1248.95 -24242.8 -25534.1 -4.01829 -11.6363 -23.0349 22.6163 41.668 41.668 83.3359
Loop time of 1433.5 on 1 procs for 50000 steps with 8000 atoms

Pair  time (%) = 1293.25 (90.2162)
Neigh time (%) = 99.2373 (6.92273)
Comm  time (%) = 8.53683 (0.595524)
Outpt time (%) = 0.618507 (0.0431467)
Other time (%) = 31.8576 (2.22236)

unfix		1

# Melt half the system
region  liquid block INF INF INF INF INF 10
group	liquid_group region liquid
3995 atoms in group liquid_group

# Heat up one side to Tmelt to make sure it is melted
fix 2 liquid_group npt temp 2000 2000 1 z 0 0 10 drag 1.0
run		50000
Step Temp TotEng PotEng Press Pxx Pyy Pzz Lx Ly Lz
50000    1253.3862   -24225.988   -25521.929   -284.58474   -634.44656    102.94105    -322.2487     41.68401     41.68401     83.36802
Averages over the last 251 of 501 rows, steps 75000 to 100000:
Temp TotEng PotEng Press Pxx Pyy Pzz Lx Ly Lz
1982.57 -22348.5 -24398.4 3481.1 5014.49 5445.85 -17.0527 41.684 41.684 88.7573
Loop time of 1366.9 on 1 procs for 50000 steps with 8000 atoms

Pair  time (%) = 1238.1 (90.5769)
Neigh time (%) = 95.4686 (6.98431)
Comm  time (%) = 8.24376 (0.603099)
Outpt time (%) = 0.617846 (0.0452005)
Other time (%) = 24.4748 (1.79053)
