LAMMPS (13 Jan 2014)
dimension       3
boundary        p p p
units           metal

atom_style	atomic
neighbor	0.3 bin
neigh_modify	every 10 delay 0 check no

# Number of steps for the equilibration steps
variable        eqsteps equal 50000

# Number of steps to run our NPH simulation
variable        simsteps equal 200000

# Our trial melting temperature
variable	T equal 1325.0
variable	T2 equal 2*1325

# Some high temperature to melt the crystal
variable	Tmelt equal 2000.0

#System size
variable	nx equal 10
variable	ny equal 10
variable	nz equal 20
variable	nzhalf equal 20*0.5
variable	a equal 4.050
variable	length equal 20*4.05

lattice		fcc 4.05
Lattice spacing in x,y,z = 4.05 4.05 4.05

region         box block 0 10 0 10 0 20
create_box     1 box
Created orthogonal box = (0 0 0) to (40.5 40.5 81)
create_atoms   1 box
Created 8000 atoms

mass		1 26.9815

pair_style	eam/alloy
pair_coeff	* * Al_potential.alloy Al

velocity	all create 2650 1337

# Create a dump file. This can be visualized with
# e.g. OVITO (http://www.ovito.org/)
dump		id all atom 1000 atomsdump

# 1 fs timestep
timestep	0.001
thermo_style	custom step temp etotal pe press pxx pyy pzz lx ly lz

# output every 100th timestep
thermo		100

# Equilibration the whole system to the trial melting temperature
fix		1 all npt temp 1325 1325 1 iso 0 0 3 drag 1.0
run		50000
Step Temp TotEng PotEng Press Pxx Pyy Pzz Lx Ly Lz
0         2650   -24437.279   -27177.252    17964.017    17763.837     17743.13    18385.085         40.5         40.5           81
Averages over the last 251 of 501 rows, steps 25000 to 50000:
Temp TotEng PotEng Press Pxx Pyy Pzz Lx Ly Lz
1323.47 -23429.8 -24798.2 -7.80795 -17.3836 -14.6932 8.65299 42.232 42.232 84.4641
Loop time of 1405.89 on 1 procs for 50000 steps with 8000 atoms

Pair  time (%) = 1266.21 (90.0645)
Neigh time (%) = 99.0255 (7.04362)
Comm  time (%) = 8.22836 (0.585278)
Outpt time (%) = 0.641679 (0.0456422)
Other time (%) = 31.7866 (2.26096)

unfix		1

# Melt half the system
region  liquid block INF INF INF INF INF 10
group	liquid_group region liquid
3988 atoms in group liquid_group

# Heat up one side to Tmelt to make sure it is melted
fix 2 liquid_group npt temp 2000 2000 1 z 0 0 10 drag 1.0
run		50000
Step Temp TotEng PotEng Press Pxx Pyy Pzz Lx Ly Lz
50000    1326.1818   -23429.034   -24800.242    186.52782    -6.504549    468.16592    97.922101    42.223284    42.223284    84.446567
Averages over the last 251 of 501 rows, steps 75000 to 100000:
Temp TotEng PotEng Press Pxx Pyy Pzz Lx Ly Lz
1996.9 -22008.2 -24072.9 4116.53 6065.4 6321.87 -37.6711 42.2233 42.2233 88.1627
Loop time of 1338.03 on 1 procs for 50000 steps with 8000 atoms

Pair  time (%) = 1209.35 (90.383)
Neigh time (%) = 95.6905 (7.1516)
Comm  time (%) = 7.95296 (0.594379)
Outpt time (%) = 0.622273 (0.0465067)
Other time (%) = 24.4124 (1.82451)

unfix		2

# Cool it down again to trial melting temperature
fix 3 liquid_group npt temp 1325     1325     1 z 0 0 10 drag 1.0
run		50000
Step Temp TotEng PotEng Press Pxx Pyy Pzz Lx Ly Lz
100000    2008.8903   -22001.811   -24078.907    3780.5396    6581.7315    5416.0474   -656.15996    42.223284    42.223284    88.179376
Averages over the last 251 of 501 rows, steps 125000 to 150000:
Temp TotEng PotEng Press Pxx Pyy Pzz Lx Ly Lz
1328.02 -23440 -24813.1 -185.67 -366.408 -175.115 -15.4881 42.2233 42.2233 84.4373
Loop time of 1357.83 on 1 procs for 50000 steps with 8000 atoms

Pair  time (%) = 1227.88 (90.4296)
Neigh time (%) = 97.1741 (7.15656)
Comm  time (%) = 7.91723 (0.583079)
Outpt time (%) = 0.624628 (0.0460018)
Other time (%) = 24.2341 (1.78477)

unfix		3

# Run simulation
fix		4 all nph x 0 0 10 y 0 0 10 z 0 0 1 couple xy drag 1.0
run		200000
Step Temp TotEng PotEng Press Pxx Pyy Pzz Lx Ly Lz
150000     1318.036   -23445.846   -24808.632   -263.01608    163.62833   -46.677133   -905.99944    42.223284    42.223284    84.454756
Averages over the last 1001 of 2001 rows, steps 250000 to 350000:
Temp TotEng PotEng Press Pxx Pyy Pzz Lx Ly Lz
1311.55 -23459.3 -24815.3 -44.0851 -74.9756 -55.7819 -1.49774 42.2122 42.2122 84.4533
Loop time of 5552.94 on 1 procs for 200000 steps with 8000 atoms

Pair  time (%) = 5002.47 (90.087)
Neigh time (%) = 395.577 (7.12375)
Comm  time (%) = 32.3545 (0.582656)
Outpt time (%) = 2.51434 (0.0452795)
Other time (%) = 120.017 (2.16132)

unfix		4
