LAMMPS (13 Jan 2014)
dimension       3
boundary        p p p
units           metal

atom_style	atomic
neighbor	0.3 bin
neigh_modify	every 10 delay 0 check no

# Number of steps for the equilibration steps
variable        eqsteps equal 50000

# Number of steps to run our NPH simulation
variable        simsteps equal 200000

# Our trial melting temperature
variable	T equal 1300.0
variable	T2 equal 2*1300

# Some high temperature to melt the crystal
variable	Tmelt equal 2000.0

#System size
variable	nx equal 10
variable	ny equal 10
variable	nz equal 20
variable	nzhalf equal 20*0.5
variable	a equal 4.050
variable	length equal 20*4.05

lattice		fcc 4.05
Lattice spacing in x,y,z = 4.05 4.05 4.05

region         box block 0 10 0 10 0 20
create_box     1 box
Created orthogonal box = (0 0 0) to (40.5 40.5 81)
create_atoms   1 box
Created 8000 atoms

mass		1 26.9815

pair_style	eam/alloy
pair_coeff	* * Al_potential.alloy Al

velocity	all create 2600 1337

# Create a dump file. This can be visualized with
# e.g. OVITO (http://www.ovito.org/)
dump		id all atom 1000 atomsdump

# 1 fs timestep
timestep	0.001
thermo_style	custom step temp etotal pe press pxx pyy pzz lx ly lz

# output every 100th timestep
thermo		100

# Equilibration the whole system to the trial melting temperature
fix		1 all npt temp 1300 1300 1 iso 0 0 3 drag 1.0
run		50000
Step Temp TotEng PotEng Press Pxx Pyy Pzz Lx Ly Lz
0         2600   -24488.977   -27177.252    17548.399    17351.996    17331.679    17961.522         40.5         40.5           81
Averages over the last 251 of 501 rows, steps 25000 to 50000:
Temp TotEng PotEng Press Pxx Pyy Pzz Lx Ly Lz
1291.99 -23509.3 -24845.1 10.1166 35.8845 39.8112 -45.3458 42.1882 42.1882 84.3763
Loop time of 1414.02 on 1 procs for 50000 steps with 8000 atoms

Pair  time (%) = 1274.33 (90.1209)
Neigh time (%) = 99.1126 (7.00929)
Comm  time (%) = 8.24426 (0.583038)
Outpt time (%) = 0.622775 (0.0440429)
Other time (%) = 31.7121 (2.2427)

unfix		1

# Melt half the system
region  liquid block INF INF INF INF INF 10
group	liquid_group region liquid
3987 atoms in group liquid_group

# Heat up one side to Tmelt to make sure it is melted
fix 2 liquid_group npt temp 2000 2000 1 z 0 0 10 drag 1.0
run		50000
Step Temp TotEng PotEng Press Pxx Pyy Pzz Lx Ly Lz
50000    1303.8451   -23484.851   -24832.964   -549.99475     651.0494   -643.43533   -1657.5983    42.221953    42.221953    84.443907
Averages over the last 251 of 501 rows, steps 75000 to 100000:
Temp TotEng PotEng Press Pxx Pyy Pzz Lx Ly Lz
1998.01 -22000 -24065.8 4813.81 7343.92 7130.91 -33.3948 42.222 42.222 88.1512
Loop time of 1336.19 on 1 procs for 50000 steps with 8000 atoms

Pair  time (%) = 1207.34 (90.3569)
Neigh time (%) = 95.8755 (7.1753)
Comm  time (%) = 7.97233 (0.596647)
Outpt time (%) = 0.624979 (0.0467733)
Other time (%) = 24.3774 (1.82439)
