LAMMPS (13 Jan 2014)
dimension       3
boundary        p p p
units           metal

atom_style	atomic
neighbor	0.3 bin
neigh_modify	every 10 delay 0 check no

# Number of steps for the equilibration steps
variable        eqsteps equal 50000

# Number of steps to run our NPH simulation
variable        simsteps equal 200000

# Our trial melting temperature
variable	T equal 1150.0
variable	T2 equal 2*1150

# Some high temperature to melt the crystal
variable	Tmelt equal 2000.0

#System size
variable	nx equal 10
variable	ny equal 10
variable	nz equal 20
variable	nzhalf equal 20*0.5
variable	a equal 4.050
variable	length equal 20*4.05

lattice		fcc 4.05
Lattice spacing in x,y,z = 4.05 4.05 4.05

region         box block 0 10 0 10 0 20
create_box     1 box
Created orthogonal box = (0 0 0) to (40.5 40.5 81)
create_atoms   1 box
Created 8000 atoms

mass		1 26.9815

pair_style	eam/alloy
pair_coeff	* * Al_potential.alloy Al

velocity	all create 2300 1337

# Create a dump file. This can be visualized with
# e.g. OVITO (http://www.ovito.org/)
dump		id all atom 1000 atomsdump

# 1 fs timestep
timestep	0.001
thermo_style	custom step temp etotal pe press pxx pyy pzz lx ly lz

# output every 100th timestep
thermo		100

# Equilibration the whole system to the trial melting temperature
fix		1 all npt temp 1150 1150 1 iso 0 0 3 drag 1.0
run		50000
Step Temp TotEng PotEng Press Pxx Pyy Pzz Lx Ly Lz
0         2300   -24799.162   -27177.252    15054.691     14880.95    14862.977    15420.146         40.5         40.5           81
Averages over the last 251 of 501 rows, steps 25000 to 50000:
Temp TotEng PotEng Press Pxx Pyy Pzz Lx Ly Lz
1149.53 -24564.3 -25752.9 12.7541 46.223 -35.8096 27.849 41.4998 41.4998 82.9996
Loop time of 1449.78 on 1 procs for 50000 steps with 8000 atoms

Pair  time (%) = 1309.09 (90.2962)
Neigh time (%) = 99.4818 (6.86187)
Comm  time (%) = 8.62959 (0.595235)
Outpt time (%) = 0.629922 (0.0434496)
Other time (%) = 31.9427 (2.20328)

unfix		1

# Melt half the system
region  liquid block INF INF INF INF INF 10
group	liquid_group region liquid
3982 atoms in group liquid_group

# Heat up one side to Tmelt to make sure it is melted
fix 2 liquid_group npt temp 2000 2000 1 z 0 0 10 drag 1.0
run		50000
Step Temp TotEng PotEng Press Pxx Pyy Pzz Lx Ly Lz
50000      1150.62   -24564.091   -25753.777    132.71333    481.42127   -398.58324    315.30196    41.498099    41.498099    82.996197
Averages over the last 251 of 501 rows, steps 75000 to 100000:
Temp TotEng PotEng Press Pxx Pyy Pzz Lx Ly Lz
1969.52 -22446 -24482.4 3676.81 5600.93 5372.56 56.9319 41.4981 41.4981 89.058
Loop time of 1381.91 on 1 procs for 50000 steps with 8000 atoms

Pair  time (%) = 1252.71 (90.6502)
Neigh time (%) = 95.7771 (6.93076)
Comm  time (%) = 8.32652 (0.602536)
Outpt time (%) = 0.622832 (0.0450703)
Other time (%) = 24.4797 (1.77144)

unfix		2

# Cool it down again to trial melting temperature
fix 3 liquid_group npt temp 1150     1150     1 z 0 0 10 drag 1.0
run		50000
Step Temp TotEng PotEng Press Pxx Pyy Pzz Lx Ly Lz
100000    1990.3287   -22385.129   -24443.033    3610.1283    7113.8412    4505.0062   -788.46259    41.498099    41.498099    89.217015
Averages over the last 251 of 501 rows, steps 125000 to 150000:
Temp TotEng PotEng Press Pxx Pyy Pzz Lx Ly Lz
1158.13 -24253.6 -25451 382.232 674.099 455.063 17.5348 41.4981 41.4981 84.2239
Loop time of 1401.13 on 1 procs for 50000 steps with 8000 atoms

Pair  time (%) = 1269.89 (90.6335)
Neigh time (%) = 97.8959 (6.98692)
Comm  time (%) = 8.29329 (0.591899)
Outpt time (%) = 0.623446 (0.0444959)
Other time (%) = 24.4242 (1.74318)

unfix		3

# Run simulation
fix		4 all nph x 0 0 10 y 0 0 10 z 0 0 1 couple xy drag 1.0
run		200000
Step Temp TotEng PotEng Press Pxx Pyy Pzz Lx Ly Lz
150000    1143.7693   -24276.389   -25458.992    453.85669    289.40574    836.78854    235.37578    41.498099    41.498099    84.155619
Averages over the last 1001 of 2001 rows, steps 250000 to 350000:
Temp TotEng PotEng Press Pxx Pyy Pzz Lx Ly Lz
997.336 -24287.7 -25318.9 -33.5073 -75.0231 -14.9175 -10.5813 41.3854 41.3854 85.1253
Loop time of 5632.94 on 1 procs for 200000 steps with 8000 atoms

Pair  time (%) = 5087.52 (90.3173)
Neigh time (%) = 389.692 (6.91809)
Comm  time (%) = 32.6659 (0.579908)
Outpt time (%) = 2.49271 (0.0442523)
Other time (%) = 120.57 (2.14044)

unfix		4
