LAMMPS (13 Jan 2014)
dimension       3
boundary        p p p
units           metal

atom_style	atomic
neighbor	0.3 bin
neigh_modify	every 10 delay 0 check no

# Number of steps for the equilibration steps
variable        eqsteps equal 50000

# Number of steps to run our NPH simulation
variable        simsteps equal 200000

# Our trial melting temperature
variable	T equal 1275.0
variable	T2 equal 2*1275

# Some high temperature to melt the crystal
variable	Tmelt equal 2000.0

#System size
variable	nx equal 10
variable	ny equal 10
variable	nz equal 20
variable	nzhalf equal 20*0.5
variable	a equal 4.050
variable	length equal 20*4.05

lattice		fcc 4.05
Lattice spacing in x,y,z = 4.05 4.05 4.05

region         box block 0 10 0 10 0 20
create_box     1 box
Created orthogonal box = (0 0 0) to (40.5 40.5 81)
create_atoms   1 box
Created 8000 atoms

mass		1 26.9815

pair_style	eam/alloy
pair_coeff	* * Al_potential.alloy Al

velocity	all create 2550 1337

# Create a dump file. This can be visualized with
# e.g. OVITO (http://www.ovito.org/)
dump		id all atom 1000 atomsdump

# 1 fs timestep
timestep	0.001
thermo_style	custom step temp etotal pe press pxx pyy pzz lx ly lz

# output every 100th timestep
thermo		100

# Equilibration the whole system to the trial melting temperature
fix		1 all npt temp 1275 1275 1 iso 0 0 3 drag 1.0
run		50000
Step Temp TotEng PotEng Press Pxx Pyy Pzz Lx Ly Lz
0         2550   -24540.674   -27177.252    17132.781    16940.155    16920.229    17537.959         40.5         40.5           81
Averages over the last 251 of 501 rows, steps 25000 to 50000:
Temp TotEng PotEng Press Pxx Pyy Pzz Lx Ly Lz
1245.06 -23641.1 -24928.4 -16.4693 28.6217 -32.7616 -45.2681 42.1146 42.1146 84.2293
Loop time of 1416.23 on 1 procs for 50000 steps with 8000 atoms

Pair  time (%) = 1276.47 (90.1319)
Neigh time (%) = 99.1506 (7.00104)
Comm  time (%) = 8.29601 (0.585782)
Outpt time (%) = 0.619752 (0.0437608)
Other time (%) = 31.6879 (2.23749)

unfix		1

# Melt half the system
region  liquid block INF INF INF INF INF 10
group	liquid_group region liquid
4006 atoms in group liquid_group

# Heat up one side to Tmelt to make sure it is melted
fix 2 liquid_group npt temp 2000 2000 1 z 0 0 10 drag 1.0
run		50000
Step Temp TotEng PotEng Press Pxx Pyy Pzz Lx Ly Lz
50000    1258.3794   -23557.473   -24858.576    203.11573    515.89294   -218.22332    311.67758    42.159267    42.159267    84.318533
Averages over the last 251 of 501 rows, steps 75000 to 100000:
Temp TotEng PotEng Press Pxx Pyy Pzz Lx Ly Lz
1997.09 -21984.5 -24049.4 4645.96 7196.58 6790.69 -49.3855 42.1593 42.1593 88.4248
Loop time of 1338.26 on 1 procs for 50000 steps with 8000 atoms

Pair  time (%) = 1210.36 (90.443)
Neigh time (%) = 94.9655 (7.09619)
Comm  time (%) = 7.96252 (0.59499)
Outpt time (%) = 0.618566 (0.0462216)
Other time (%) = 24.3512 (1.81962)

unfix		2

# Cool it down again to trial melting temperature
fix 3 liquid_group npt temp 1275     1275     1 z 0 0 10 drag 1.0
run		50000
Step Temp TotEng PotEng Press Pxx Pyy Pzz Lx Ly Lz
100000    2004.6458   -21975.743    -24048.45    4648.7088     8663.124    5411.8716   -128.86926    42.159267    42.159267    88.426129
Averages over the last 251 of 501 rows, steps 125000 to 150000:
Temp TotEng PotEng Press Pxx Pyy Pzz Lx Ly Lz
1277.95 -23519.9 -24841.3 76.9669 363.033 -125.441 -6.69175 42.1593 42.1593 84.452
Loop time of 1360.21 on 1 procs for 50000 steps with 8000 atoms

Pair  time (%) = 1230.14 (90.4377)
Neigh time (%) = 97.2671 (7.15092)
Comm  time (%) = 7.93384 (0.583282)
Outpt time (%) = 0.619157 (0.0455194)
Other time (%) = 24.2465 (1.78256)

unfix		3

# Run simulation
fix		4 all nph x 0 0 10 y 0 0 10 z 0 0 1 couple xy drag 1.0
run		200000
Step Temp TotEng PotEng Press Pxx Pyy Pzz Lx Ly Lz
150000    1271.9008   -23529.012   -24844.096    214.30108    1222.6798   -65.008458   -514.76805    42.159267    42.159267    84.440454
Averages over the last 1001 of 2001 rows, steps 250000 to 350000:
Temp TotEng PotEng Press Pxx Pyy Pzz Lx Ly Lz
1278.8 -23541.5 -24863.7 -8.76488 0.518699 -21.6586 -5.1547 42.262 42.262 83.9818
Loop time of 5555.38 on 1 procs for 200000 steps with 8000 atoms

Pair  time (%) = 5004.47 (90.0834)
Neigh time (%) = 396.372 (7.13492)
Comm  time (%) = 32.26 (0.580698)
Outpt time (%) = 2.47947 (0.044632)
Other time (%) = 119.795 (2.15638)

unfix		4
