LAMMPS (13 Jan 2014)
dimension       3
boundary        p p p
units           metal

atom_style	atomic
neighbor	0.3 bin
neigh_modify	every 10 delay 0 check no

# Number of steps for the equilibration steps
variable        eqsteps equal 50000

# Number of steps to run our NPH simulation
variable        simsteps equal 200000

# Our trial melting temperature
variable	T equal 875.0
variable	T2 equal 2*875

# Some high temperature to melt the crystal
variable	Tmelt equal 2000.0

#System size
variable	nx equal 10
variable	ny equal 10
variable	nz equal 20
variable	nzhalf equal 20*0.5
variable	a equal 4.050
variable	length equal 20*4.05

lattice		fcc 4.05
Lattice spacing in x,y,z = 4.05 4.05 4.05

region         box block 0 10 0 10 0 20
create_box     1 box
Created orthogonal box = (0 0 0) to (40.5 40.5 81)
create_atoms   1 box
Created 8000 atoms

mass		1 26.9815

pair_style	eam/alloy
pair_coeff	* * Al_potential.alloy Al

velocity	all create 1750 1337

# Create a dump file. This can be visualized with
# e.g. OVITO (http://www.ovito.org/)
dump		id all atom 1000 atomsdump

# 1 fs timestep
timestep	0.001
thermo_style	custom step temp etotal pe press pxx pyy pzz lx ly lz

# output every 100th timestep
thermo		100

# Equilibration the whole system to the trial melting temperature
fix		1 all npt temp 875 875 1 iso 0 0 3 drag 1.0
run		50000
Step Temp TotEng PotEng Press Pxx Pyy Pzz Lx Ly Lz
0         1750   -25367.836   -27177.252    10482.893    10350.698    10337.024    10760.956         40.5         40.5           81
Averages over the last 251 of 501 rows, steps 25000 to 50000:
Temp TotEng PotEng Press Pxx Pyy Pzz Lx Ly Lz
874.488 -25257.5 -26161.6 11.1182 -4.88938 28.8572 9.38673 41.1843 41.1843 82.3686
Loop time of 1483.7 on 1 procs for 50000 steps with 8000 atoms

Pair  time (%) = 1342.57 (90.4883)
Neigh time (%) = 100.07 (6.74463)
Comm  time (%) = 8.62035 (0.581005)
Outpt time (%) = 0.62823 (0.0423422)
Other time (%) = 31.8064 (2.14373)

unfix		1

# Melt half the system
region  liquid block INF INF INF INF INF 10
group	liquid_group region liquid
3951 atoms in group liquid_group

# Heat up one side to Tmelt to make sure it is melted
fix 2 liquid_group npt temp 2000 2000 1 z 0 0 10 drag 1.0
run		50000
Step Temp TotEng PotEng Press Pxx Pyy Pzz Lx Ly Lz
50000    876.43628   -25258.011   -26164.204   -160.06129    167.04912   -314.10625   -333.12674    41.185921    41.185921    82.371842
Averages over the last 251 of 501 rows, steps 75000 to 100000:
Temp TotEng PotEng Press Pxx Pyy Pzz Lx Ly Lz
1925.88 -22623.1 -24614.4 4682.48 7108.05 6691.25 248.135 41.1859 41.1859 89.4899
Loop time of 1402.22 on 1 procs for 50000 steps with 8000 atoms

Pair  time (%) = 1272.67 (90.7606)
Neigh time (%) = 96.2672 (6.86533)
Comm  time (%) = 8.33261 (0.594242)
Outpt time (%) = 0.657308 (0.0468761)
Other time (%) = 24.3005 (1.733)

unfix		2

# Cool it down again to trial melting temperature
fix 3 liquid_group npt temp 875     875     1 z 0 0 10 drag 1.0
run		50000
Step Temp TotEng PotEng Press Pxx Pyy Pzz Lx Ly Lz
100000    2019.3039   -22469.997    -24557.86     4302.717    6312.4525    6493.5411    102.15724    41.185921    41.185921    89.950757
Averages over the last 251 of 501 rows, steps 125000 to 150000:
Temp TotEng PotEng Press Pxx Pyy Pzz Lx Ly Lz
922.784 -25075.7 -26029.8 227.653 641.769 106.666 -65.475 41.1859 41.1859 82.9077
Loop time of 1434.29 on 1 procs for 50000 steps with 8000 atoms

Pair  time (%) = 1302.56 (90.8153)
Neigh time (%) = 98.4806 (6.86613)
Comm  time (%) = 8.34954 (0.582136)
Outpt time (%) = 0.624908 (0.043569)
Other time (%) = 24.2808 (1.69287)

unfix		3

# Run simulation
fix		4 all nph x 0 0 10 y 0 0 10 z 0 0 1 couple xy drag 1.0
run		200000
Step Temp TotEng PotEng Press Pxx Pyy Pzz Lx Ly Lz
150000    880.23565   -25236.156   -26146.277    70.533186    420.69623   -378.01981    168.92314    41.185921    41.185921    82.418192
Averages over the last 1001 of 2001 rows, steps 250000 to 350000:
Temp TotEng PotEng Press Pxx Pyy Pzz Lx Ly Lz
881.71 -25239 -26150.6 -6.02345 11.0838 -22.6835 -6.47058 41.1914 41.1914 82.3933
Loop time of 5864.09 on 1 procs for 200000 steps with 8000 atoms

Pair  time (%) = 5314.38 (90.6258)
Neigh time (%) = 395.26 (6.74034)
Comm  time (%) = 31.7512 (0.541451)
Outpt time (%) = 2.49074 (0.0424745)
Other time (%) = 120.21 (2.04994)

unfix		4
