LAMMPS (13 Jan 2014)
dimension       3
boundary        p p p
units           metal

atom_style	atomic
neighbor	0.3 bin
neigh_modify	every 10 delay 0 check no

# Number of steps for the equilibration steps
variable        eqsteps equal 50000

# Number of steps to run our NPH simulation
variable        simsteps equal 200000

# Our trial melting temperature
variable	T equal 1000.0
variable	T2 equal 2*1000

# Some high temperature to melt the crystal
variable	Tmelt equal 2000.0

#System size
variable	nx equal 10
variable	ny equal 10
variable	nz equal 20
variable	nzhalf equal 20*0.5
variable	a equal 4.050
variable	length equal 20*4.05

lattice		fcc 4.05
Lattice spacing in x,y,z = 4.05 4.05 4.05

region         box block 0 10 0 10 0 20
create_box     1 box
Created orthogonal box = (0 0 0) to (40.5 40.5 81)
create_atoms   1 box
Created 8000 atoms

mass		1 26.9815

pair_style	eam/alloy
pair_coeff	* * Al_potential.alloy Al

velocity	all create 2000 1337

# Create a dump file. This can be visualized with
# e.g. OVITO (http://www.ovito.org/)
dump		id all atom 1000 atomsdump

# 1 fs timestep
timestep	0.001
thermo_style	custom step temp etotal pe press pxx pyy pzz lx ly lz

# output every 100th timestep
thermo		100

# Equilibration the whole system to the trial melting temperature
fix		1 all npt temp 1000 1000 1 iso 0 0 3 drag 1.0
run		50000
Step Temp TotEng PotEng Press Pxx Pyy Pzz Lx Ly Lz
0         2000   -25109.348   -27177.252    12560.983    12409.903    12394.275     12878.77         40.5         40.5           81
Averages over the last 251 of 501 rows, steps 25000 to 50000:
Temp TotEng PotEng Press Pxx Pyy Pzz Lx Ly Lz
1000.2 -24952.9 -25987.1 -5.63333 -1.10912 16.9886 -32.7795 41.319 41.319 82.638
Loop time of 1478.1 on 1 procs for 50000 steps with 8000 atoms

Pair  time (%) = 1335.19 (90.3317)
Neigh time (%) = 101.684 (6.87939)
Comm  time (%) = 8.69761 (0.588431)
Outpt time (%) = 0.653752 (0.0442292)
Other time (%) = 31.872 (2.15628)

unfix		1

# Melt half the system
region  liquid block INF INF INF INF INF 10
group	liquid_group region liquid
3991 atoms in group liquid_group

# Heat up one side to Tmelt to make sure it is melted
fix 2 liquid_group npt temp 2000 2000 1 z 0 0 10 drag 1.0
run		50000
Step Temp TotEng PotEng Press Pxx Pyy Pzz Lx Ly Lz
50000    1006.7764   -24953.014   -25993.972   -14.522764    98.111268   -226.25741    84.577848    41.317015    41.317015    82.634031
Averages over the last 251 of 501 rows, steps 75000 to 100000:
Temp TotEng PotEng Press Pxx Pyy Pzz Lx Ly Lz
1952.8 -22545.4 -24564.5 4255.46 6243.6 6296.69 226.075 41.317 41.317 89.301
Loop time of 1391.53 on 1 procs for 50000 steps with 8000 atoms

Pair  time (%) = 1260.26 (90.5663)
Neigh time (%) = 97.7673 (7.02589)
Comm  time (%) = 8.36047 (0.600811)
Outpt time (%) = 0.627632 (0.0451037)
Other time (%) = 24.517 (1.76188)

unfix		2

# Cool it down again to trial melting temperature
fix 3 liquid_group npt temp 1000     1000     1 z 0 0 10 drag 1.0
run		50000
Step Temp TotEng PotEng Press Pxx Pyy Pzz Lx Ly Lz
100000    2019.6374   -22445.925   -24534.133    3927.5906    5279.5679    5988.7986    514.40532    41.317015    41.317015    89.622423
Averages over the last 251 of 501 rows, steps 125000 to 150000:
Temp TotEng PotEng Press Pxx Pyy Pzz Lx Ly Lz
1020.58 -24694.7 -25749.9 223.222 276.304 444.77 -51.4091 41.317 41.317 83.6041
Loop time of 1415.94 on 1 procs for 50000 steps with 8000 atoms

Pair  time (%) = 1282.58 (90.5812)
Neigh time (%) = 99.886 (7.0544)
Comm  time (%) = 8.36732 (0.590938)
Outpt time (%) = 0.630963 (0.0445614)
Other time (%) = 24.4795 (1.72885)

unfix		3

# Run simulation
fix		4 all nph x 0 0 10 y 0 0 10 z 0 0 1 couple xy drag 1.0
run		200000
Step Temp TotEng PotEng Press Pxx Pyy Pzz Lx Ly Lz
150000    1009.3894    -24780.22    -25823.88    98.382836    291.93711    183.32491   -180.11352    41.317015    41.317015    83.313277
Averages over the last 1001 of 2001 rows, steps 250000 to 350000:
Temp TotEng PotEng Press Pxx Pyy Pzz Lx Ly Lz
1064.14 -24785 -25885.2 -1.05339 15.8638 -17.1986 -1.82538 41.3907 41.3907 82.8206
Loop time of 5777.19 on 1 procs for 200000 steps with 8000 atoms

Pair  time (%) = 5219.46 (90.3461)
Neigh time (%) = 402.89 (6.97381)
Comm  time (%) = 31.8772 (0.551777)
Outpt time (%) = 2.50356 (0.0433352)
Other time (%) = 120.454 (2.08499)

unfix		4
