LAMMPS (13 Jan 2014)
dimension       3
boundary        p p p
units           metal

atom_style	atomic
neighbor	0.3 bin
neigh_modify	every 10 delay 0 check no

# Number of steps for the equilibration steps
variable        eqsteps equal 50000

# Number of steps to run our NPH simulation
variable        simsteps equal 200000

# Our trial melting temperature
variable	T equal 1175.0
variable	T2 equal 2*1175

# Some high temperature to melt the crystal
variable	Tmelt equal 2000.0

#System size
variable	nx equal 10
variable	ny equal 10
variable	nz equal 20
variable	nzhalf equal 20*0.5
variable	a equal 4.050
variable	length equal 20*4.05

lattice		fcc 4.05
Lattice spacing in x,y,z = 4.05 4.05 4.05

region         box block 0 10 0 10 0 20
create_box     1 box
Created orthogonal box = (0 0 0) to (40.5 40.5 81)
create_atoms   1 box
Created 8000 atoms

mass		1 26.9815

pair_style	eam/alloy
pair_coeff	* * Al_potential.alloy Al

velocity	all create 2350 1337

# Create a dump file. This can be visualized with
# e.g. OVITO (http://www.ovito.org/)
dump		id all atom 1000 atomsdump

# 1 fs timestep
timestep	0.001
thermo_style	custom step temp etotal pe press pxx pyy pzz lx ly lz

# output every 100th timestep
thermo		100

# Equilibration the whole system to the trial melting temperature
fix		1 all npt temp 1175 1175 1 iso 0 0 3 drag 1.0
run		50000
Step Temp TotEng PotEng Press Pxx Pyy Pzz Lx Ly Lz
0         2350   -24747.465   -27177.252    15470.309    15292.791    15274.428    15843.708         40.5         40.5           81
Averages over the last 251 of 501 rows, steps 25000 to 50000:
Temp TotEng PotEng Press Pxx Pyy Pzz Lx Ly Lz
1175.63 -24492.5 -25708.1 -7.87364 -24.6688 -17.7722 18.8201 41.5353 41.5353 83.0705
Loop time of 1448.52 on 1 procs for 50000 steps with 8000 atoms

Pair  time (%) = 1307.85 (90.2881)
Neigh time (%) = 99.3926 (6.86164)
Comm  time (%) = 8.58006 (0.592331)
Outpt time (%) = 0.908453 (0.0627157)
Other time (%) = 31.798 (2.1952)

unfix		1

# Melt half the system
region  liquid block INF INF INF INF INF 10
group	liquid_group region liquid
4002 atoms in group liquid_group

# Heat up one side to Tmelt to make sure it is melted
fix 2 liquid_group npt temp 2000 2000 1 z 0 0 10 drag 1.0
run		50000
Step Temp TotEng PotEng Press Pxx Pyy Pzz Lx Ly Lz
50000    1168.3517   -24493.286   -25701.305    201.86544    84.437293    179.05988    342.09916    41.536727    41.536727    83.073454
Averages over the last 251 of 501 rows, steps 75000 to 100000:
Temp TotEng PotEng Press Pxx Pyy Pzz Lx Ly Lz
1971.68 -22424.8 -24463.4 3968.82 6163.84 5623.71 118.918 41.5367 41.5367 88.9491
Loop time of 1374.59 on 1 procs for 50000 steps with 8000 atoms

Pair  time (%) = 1245.49 (90.6084)
Neigh time (%) = 95.7107 (6.96285)
Comm  time (%) = 8.28346 (0.602613)
Outpt time (%) = 0.623596 (0.045366)
Other time (%) = 24.4779 (1.78074)

unfix		2

# Cool it down again to trial melting temperature
fix 3 liquid_group npt temp 1175     1175     1 z 0 0 10 drag 1.0
run		50000
Step Temp TotEng PotEng Press Pxx Pyy Pzz Lx Ly Lz
100000    2007.5683   -22363.312   -24439.041    3654.1751    6069.5369    4833.3127    59.675622    41.536727    41.536727    89.140606
Averages over the last 251 of 501 rows, steps 125000 to 150000:
Temp TotEng PotEng Press Pxx Pyy Pzz Lx Ly Lz
1182.88 -24186.4 -25409.5 762.77 1438.6 842.465 7.24383 41.5367 41.5367 84.228
Loop time of 1395.09 on 1 procs for 50000 steps with 8000 atoms

Pair  time (%) = 1263.97 (90.6011)
Neigh time (%) = 97.8057 (7.01072)
Comm  time (%) = 8.26647 (0.592541)
Outpt time (%) = 0.623613 (0.0447006)
Other time (%) = 24.4265 (1.75089)

unfix		3

# Run simulation
fix		4 all nph x 0 0 10 y 0 0 10 z 0 0 1 couple xy drag 1.0
run		200000
Step Temp TotEng PotEng Press Pxx Pyy Pzz Lx Ly Lz
150000    1178.8753   -24207.899   -25426.799    563.50355    826.80959    811.45044    52.250622    41.536727    41.536727    84.176922
Averages over the last 1001 of 2001 rows, steps 250000 to 350000:
Temp TotEng PotEng Press Pxx Pyy Pzz Lx Ly Lz
1023.31 -24218.9 -25276.9 -14.4468 2.26822 -48.4139 2.80525 41.3793 41.3793 85.3655
Loop time of 5606.03 on 1 procs for 200000 steps with 8000 atoms

Pair  time (%) = 5062.92 (90.3121)
Neigh time (%) = 387.956 (6.92034)
Comm  time (%) = 32.4963 (0.579666)
Outpt time (%) = 2.4885 (0.0443897)
Other time (%) = 120.168 (2.14355)

unfix		4
