LAMMPS (13 Jan 2014)
dimension       3
boundary        p p p
units           metal

atom_style	atomic
neighbor	0.3 bin
neigh_modify	every 10 delay 0 check no

# Number of steps for the equilibration steps
variable        eqsteps equal 50000

# Number of steps to run our NPH simulation
variable        simsteps equal 200000

# Our trial melting temperature
variable	T equal 1000.0
variable	T2 equal 2*1000

# Some high temperature to melt the crystal
variable	Tmelt equal 2000.0

#System size
variable	nx equal 4
variable	ny equal 4
variable	nz equal 20
variable	nzhalf equal 20*0.5
variable	a equal 4.050
variable	length equal 20*4.05

lattice		fcc 4.05
Lattice spacing in x,y,z = 4.05 4.05 4.05

region         box block 0 4 0 4 0 20
create_box     1 box
Created orthogonal box = (0 0 0) to (16.2 16.2 81)
create_atoms   1 box
Created 1280 atoms

mass		1 26.9815

pair_style	eam/alloy
pair_coeff	* * Al_potential.alloy Al

velocity	all create 2000 1337

# Create a dump file. This can be visualized with
# e.g. OVITO (http://www.ovito.org/)
dump		id all atom 1000 atomsdump

# 1 fs timestep
timestep	0.001
thermo_style	custom step temp etotal pe press pxx pyy pzz lx ly lz

# output every 100th timestep
thermo		100

# Equilibration the whole system to the trial melting temperature
fix		1 all npt temp 1000 1000 1 iso 0 0 3 drag 1.0
run		50000
Step Temp TotEng PotEng Press Pxx Pyy Pzz Lx Ly Lz
0         2000   -4017.7128   -4348.3603    12550.071    12090.606    12421.922    13137.686         16.2         16.2           81
Averages over the last 251 of 501 rows, steps 25000 to 50000:
Temp TotEng PotEng Press Pxx Pyy Pzz Lx Ly Lz
999.429 -3992.97 -4158.2 19.8022 -110.855 -18.9433 189.205 16.527 16.527 82.635
Loop time of 243.503 on 1 procs for 50000 steps with 1280 atoms

Pair  time (%) = 215.176 (88.3672)
Neigh time (%) = 19.5293 (8.02018)
Comm  time (%) = 3.29623 (1.35367)
Outpt time (%) = 0.113519 (0.0466191)
Other time (%) = 5.38702 (2.21231)

unfix		1

# Melt half the system
region  liquid block INF INF INF INF INF 10
group	liquid_group region liquid
641 atoms in group liquid_group

# Heat up one side to Tmelt to make sure it is melted
fix 2 liquid_group npt temp 2000 2000 1 z 0 0 10 drag 1.0
run		50000
Step Temp TotEng PotEng Press Pxx Pyy Pzz Lx Ly Lz
50000    996.18488     -3992.43    -4157.123    133.05388   -126.10053    407.35308    117.90907    16.529299    16.529299    82.646494
Averages over the last 251 of 501 rows, steps 75000 to 100000:
Temp TotEng PotEng Press Pxx Pyy Pzz Lx Ly Lz
1999.14 -3590.76 -3921.27 4429.6 6913.38 6560.13 -184.722 16.5293 16.5293 89.5737
Loop time of 226.77 on 1 procs for 50000 steps with 1280 atoms

Pair  time (%) = 200.894 (88.5894)
Neigh time (%) = 18.4019 (8.11478)
Comm  time (%) = 3.15935 (1.3932)
Outpt time (%) = 0.109632 (0.048345)
Other time (%) = 4.205 (1.8543)

unfix		2

# Cool it down again to trial melting temperature
fix 3 liquid_group npt temp 1000     1000     1 z 0 0 10 drag 1.0
run		50000
Step Temp TotEng PotEng Press Pxx Pyy Pzz Lx Ly Lz
100000    1994.7438   -3591.9405   -3921.7189    3567.8329    8167.0468    5111.4892   -2575.0375    16.529299    16.529299    89.616264
Averages over the last 251 of 501 rows, steps 125000 to 150000:
Temp TotEng PotEng Press Pxx Pyy Pzz Lx Ly Lz
1020.25 -3971.19 -4139.86 145.282 426.86 74.5293 -65.5444 16.5293 16.5293 83.1033
Loop time of 233.771 on 1 procs for 50000 steps with 1280 atoms

Pair  time (%) = 207.446 (88.7391)
Neigh time (%) = 18.8121 (8.04723)
Comm  time (%) = 3.19394 (1.36627)
Outpt time (%) = 0.109647 (0.0469037)
Other time (%) = 4.209 (1.80048)

unfix		3

# Run simulation
fix		4 all nph x 0 0 10 y 0 0 10 z 0 0 1 couple xy drag 1.0
run		200000
Step Temp TotEng PotEng Press Pxx Pyy Pzz Lx Ly Lz
150000    991.04338   -3993.0707   -4156.9137    156.14773    35.576005   -366.61389    799.48108    16.529299    16.529299    82.649162
Averages over the last 1001 of 2001 rows, steps 250000 to 350000:
Temp TotEng PotEng Press Pxx Pyy Pzz Lx Ly Lz
990.528 -3996.73 -4160.49 -2.15603 -15.2287 4.88829 3.87235 16.4977 16.4977 82.8635
Loop time of 951.723 on 1 procs for 200000 steps with 1280 atoms

Pair  time (%) = 845.394 (88.8277)
Neigh time (%) = 73.4114 (7.71353)
Comm  time (%) = 12.1021 (1.2716)
Outpt time (%) = 0.438504 (0.0460747)
Other time (%) = 20.377 (2.14107)

unfix		4
