LAMMPS (13 Jan 2014)
dimension       3
boundary        p p p
units           metal

atom_style	atomic
neighbor	0.3 bin
neigh_modify	every 10 delay 0 check no

# Number of steps for the equilibration steps
variable        eqsteps equal 50000

# Number of steps to run our NPH simulation
variable        simsteps equal 200000

# Our trial melting temperature
variable	T equal 1200.0
variable	T2 equal 2*1200

# Some high temperature to melt the crystal
variable	Tmelt equal 2000.0

#System size
variable	nx equal 10
variable	ny equal 10
variable	nz equal 20
variable	nzhalf equal 20*0.5
variable	a equal 4.050
variable	length equal 20*4.05

lattice		fcc 4.05
Lattice spacing in x,y,z = 4.05 4.05 4.05

region         box block 0 10 0 10 0 20
create_box     1 box
Created orthogonal box = (0 0 0) to (40.5 40.5 81)
create_atoms   1 box
Created 8000 atoms

mass		1 26.9815

pair_style	eam/alloy
pair_coeff	* * Al_potential.alloy Al

velocity	all create 2400 1337

# Create a dump file. This can be visualized with
# e.g. OVITO (http://www.ovito.org/)
dump		id all atom 1000 atomsdump

# 1 fs timestep
timestep	0.001
thermo_style	custom step temp etotal pe press pxx pyy pzz lx ly lz

# output every 100th timestep
thermo		100

# Equilibration the whole system to the trial melting temperature
fix		1 all npt temp 1200 1200 1 iso 0 0 3 drag 1.0
run		50000
Step Temp TotEng PotEng Press Pxx Pyy Pzz Lx Ly Lz
0         2400   -24695.767   -27177.252    15885.927    15704.632    15685.878    16267.271         40.5         40.5           81
Averages over the last 251 of 501 rows, steps 25000 to 50000:
Temp TotEng PotEng Press Pxx Pyy Pzz Lx Ly Lz
1199.05 -24415.3 -25655 8.79729 -2.46868 19.7554 9.10509 41.5752 41.5752 83.1504
Loop time of 1446.69 on 1 procs for 50000 steps with 8000 atoms

Pair  time (%) = 1306.14 (90.2848)
Neigh time (%) = 99.469 (6.87563)
Comm  time (%) = 8.58515 (0.593434)
Outpt time (%) = 0.631258 (0.0436346)
Other time (%) = 31.8633 (2.2025)

unfix		1

# Melt half the system
region  liquid block INF INF INF INF INF 10
group	liquid_group region liquid
4014 atoms in group liquid_group

# Heat up one side to Tmelt to make sure it is melted
fix 2 liquid_group npt temp 2000 2000 1 z 0 0 10 drag 1.0
run		50000
Step Temp TotEng PotEng Press Pxx Pyy Pzz Lx Ly Lz
50000    1194.3385   -24416.957   -25651.845    73.318353    52.716837    840.60407   -673.36585    41.577248    41.577248    83.154496
Averages over the last 251 of 501 rows, steps 75000 to 100000:
Temp TotEng PotEng Press Pxx Pyy Pzz Lx Ly Lz
1978.27 -22394.6 -24440.1 3792.02 5248.13 6078.01 49.9121 41.5772 41.5772 88.9361
Loop time of 1379.14 on 1 procs for 50000 steps with 8000 atoms

Pair  time (%) = 1250.08 (90.6421)
Neigh time (%) = 95.7027 (6.9393)
Comm  time (%) = 8.2731 (0.599874)
Outpt time (%) = 0.625462 (0.0453516)
Other time (%) = 24.4572 (1.77337)

unfix		2

# Cool it down again to trial melting temperature
fix 3 liquid_group npt temp 1200     1200     1 z 0 0 10 drag 1.0
run		50000
Step Temp TotEng PotEng Press Pxx Pyy Pzz Lx Ly Lz
100000    1983.6885   -22356.488   -24407.526     3875.384    5541.8433    6178.8988   -94.590217    41.577248    41.577248    88.995427
Averages over the last 251 of 501 rows, steps 125000 to 150000:
Temp TotEng PotEng Press Pxx Pyy Pzz Lx Ly Lz
1206.39 -24105.2 -25352.6 719.871 590.713 1590.86 -21.9622 41.5772 41.5772 84.3429
Loop time of 1399.44 on 1 procs for 50000 steps with 8000 atoms

Pair  time (%) = 1268.27 (90.6273)
Neigh time (%) = 97.8733 (6.99376)
Comm  time (%) = 8.26158 (0.59035)
Outpt time (%) = 0.625674 (0.044709)
Other time (%) = 24.4048 (1.7439)

unfix		3

# Run simulation
fix		4 all nph x 0 0 10 y 0 0 10 z 0 0 1 couple xy drag 1.0
run		200000
Step Temp TotEng PotEng Press Pxx Pyy Pzz Lx Ly Lz
150000    1205.5526   -24121.298   -25367.782     761.7702   -49.920814    2547.3694   -212.13801    41.577248    41.577248    84.276271
Averages over the last 1001 of 2001 rows, steps 250000 to 350000:
Temp TotEng PotEng Press Pxx Pyy Pzz Lx Ly Lz
1055.47 -24132.5 -25223.8 -43.8598 -113.517 -22.1566 4.09442 41.4258 41.4258 85.4541
Loop time of 5630.01 on 1 procs for 200000 steps with 8000 atoms

Pair  time (%) = 5083.14 (90.2864)
Neigh time (%) = 391.42 (6.95238)
Comm  time (%) = 32.5676 (0.578464)
Outpt time (%) = 2.50837 (0.0445535)
Other time (%) = 120.383 (2.13823)

unfix		4
