LAMMPS (13 Jan 2014)
dimension       3
boundary        p p p
units           metal

atom_style	atomic
neighbor	0.3 bin
neigh_modify	every 10 delay 0 check no

# Number of steps for the equilibration steps
variable        eqsteps equal 50000

# Number of steps to run our NPH simulation
variable        simsteps equal 200000

# Our trial melting temperature
variable	T equal 1025.0
variable	T2 equal 2*1025

# Some high temperature to melt the crystal
variable	Tmelt equal 2000.0

#System size
variable	nx equal 10
variable	ny equal 10
variable	nz equal 20
variable	nzhalf equal 20*0.5
variable	a equal 4.050
variable	length equal 20*4.05

lattice		fcc 4.05
Lattice spacing in x,y,z = 4.05 4.05 4.05

region         box block 0 10 0 10 0 20
create_box     1 box
Created orthogonal box = (0 0 0) to (40.5 40.5 81)
create_atoms   1 box
Created 8000 atoms

mass		1 26.9815

pair_style	eam/alloy
pair_coeff	* * Al_potential.alloy Al

velocity	all create 2050 1337

# Create a dump file. This can be visualized with
# e.g. OVITO (http://www.ovito.org/)
dump		id all atom 1000 atomsdump

# 1 fs timestep
timestep	0.001
thermo_style	custom step temp etotal pe press pxx pyy pzz lx ly lz

# output every 100th timestep
thermo		100

# Equilibration the whole system to the trial melting temperature
fix		1 all npt temp 1025 1025 1 iso 0 0 3 drag 1.0
run		50000
Step Temp TotEng PotEng Press Pxx Pyy Pzz Lx Ly Lz
0         2050    -25057.65   -27177.252    12976.601    12821.744    12805.726    13302.332         40.5         40.5           81
Averages over the last 251 of 501 rows, steps 25000 to 50000:
Temp TotEng PotEng Press Pxx Pyy Pzz Lx Ly Lz
1025.09 -24890.7 -25950.6 -5.12957 -28.4047 2.94783 10.0682 41.3469 41.3469 82.6939
Loop time of 1463.64 on 1 procs for 50000 steps with 8000 atoms

Pair  time (%) = 1322.77 (90.3753)
Neigh time (%) = 99.7823 (6.8174)
Comm  time (%) = 8.64224 (0.590462)
Outpt time (%) = 0.627352 (0.0428624)
Other time (%) = 31.8189 (2.17395)

unfix		1

# Melt half the system
region  liquid block INF INF INF INF INF 10
group	liquid_group region liquid
3997 atoms in group liquid_group

# Heat up one side to Tmelt to make sure it is melted
fix 2 liquid_group npt temp 2000 2000 1 z 0 0 10 drag 1.0
run		50000
Step Temp TotEng PotEng Press Pxx Pyy Pzz Lx Ly Lz
50000    1015.8249   -24890.036    -25940.35    152.09542    292.73683    184.79793   -21.248494    41.350723    41.350723    82.701445
Averages over the last 251 of 501 rows, steps 75000 to 100000:
Temp TotEng PotEng Press Pxx Pyy Pzz Lx Ly Lz
1952.97 -22503.8 -24523.1 4178.4 6133.34 6217.32 184.525 41.3507 41.3507 89.3554
Loop time of 1386.99 on 1 procs for 50000 steps with 8000 atoms

Pair  time (%) = 1257.59 (90.6701)
Neigh time (%) = 96.0102 (6.92219)
Comm  time (%) = 8.31491 (0.599492)
Outpt time (%) = 0.621374 (0.0448002)
Other time (%) = 24.4577 (1.76337)

unfix		2

# Cool it down again to trial melting temperature
fix 3 liquid_group npt temp 1025     1025     1 z 0 0 10 drag 1.0
run		50000
Step Temp TotEng PotEng Press Pxx Pyy Pzz Lx Ly Lz
100000    1999.9609   -22411.583   -24479.446    4212.1103    6221.3724    6038.3637    376.59472    41.350723    41.350723    89.653311
Averages over the last 251 of 501 rows, steps 125000 to 150000:
Temp TotEng PotEng Press Pxx Pyy Pzz Lx Ly Lz
1039.79 -24583.9 -25659 359.602 602.6 484.487 -8.2827 41.3507 41.3507 83.825
Loop time of 1410.2 on 1 procs for 50000 steps with 8000 atoms

Pair  time (%) = 1278.65 (90.6716)
Neigh time (%) = 98.2086 (6.96418)
Comm  time (%) = 8.30322 (0.588799)
Outpt time (%) = 0.622055 (0.0441112)
Other time (%) = 24.4147 (1.7313)

unfix		3

# Run simulation
fix		4 all nph x 0 0 10 y 0 0 10 z 0 0 1 couple xy drag 1.0
run		200000
Step Temp TotEng PotEng Press Pxx Pyy Pzz Lx Ly Lz
150000    1026.0803   -24641.448   -25702.365    304.97842    -44.35654    386.73495    572.55684    41.350723    41.350723    83.650359
Averages over the last 1001 of 2001 rows, steps 250000 to 350000:
Temp TotEng PotEng Press Pxx Pyy Pzz Lx Ly Lz
1022.58 -24650.1 -25707.4 22.0976 -7.51453 53.196 20.6115 41.2237 41.2237 84.1945
Loop time of 5713.71 on 1 procs for 200000 steps with 8000 atoms

Pair  time (%) = 5163.22 (90.3655)
Neigh time (%) = 395.673 (6.92497)
Comm  time (%) = 31.9169 (0.558602)
Outpt time (%) = 2.61111 (0.0456991)
Other time (%) = 120.288 (2.10525)

unfix		4
