LAMMPS (13 Jan 2014)
dimension       3
boundary        p p p
units           metal

atom_style	atomic
neighbor	0.3 bin
neigh_modify	every 10 delay 0 check no

# Number of steps for the equilibration steps
variable        eqsteps equal 50000

# Number of steps to run our NPH simulation
variable        simsteps equal 200000

# Our trial melting temperature
variable	T equal 1050.0
variable	T2 equal 2*1050

# Some high temperature to melt the crystal
variable	Tmelt equal 2000.0

#System size
variable	nx equal 10
variable	ny equal 10
variable	nz equal 20
variable	nzhalf equal 20*0.5
variable	a equal 4.050
variable	length equal 20*4.05

lattice		fcc 4.05
Lattice spacing in x,y,z = 4.05 4.05 4.05

region         box block 0 10 0 10 0 20
create_box     1 box
Created orthogonal box = (0 0 0) to (40.5 40.5 81)
create_atoms   1 box
Created 8000 atoms

mass		1 26.9815

pair_style	eam/alloy
pair_coeff	* * Al_potential.alloy Al

velocity	all create 2100 1337

# Create a dump file. This can be visualized with
# e.g. OVITO (http://www.ovito.org/)
dump		id all atom 1000 atomsdump

# 1 fs timestep
timestep	0.001
thermo_style	custom step temp etotal pe press pxx pyy pzz lx ly lz

# output every 100th timestep
thermo		100

# Equilibration the whole system to the trial melting temperature
fix		1 all npt temp 1050 1050 1 iso 0 0 3 drag 1.0
run		50000
Step Temp TotEng PotEng Press Pxx Pyy Pzz Lx Ly Lz
0         2100   -25005.953   -27177.252    13392.219    13233.585    13217.176    13725.895         40.5         40.5           81
Averages over the last 251 of 501 rows, steps 25000 to 50000:
Temp TotEng PotEng Press Pxx Pyy Pzz Lx Ly Lz
1050.11 -24827.4 -25913.2 -4.0947 18.2219 -49.4178 18.9118 41.3761 41.3761 82.7521
Loop time of 1468.22 on 1 procs for 50000 steps with 8000 atoms

Pair  time (%) = 1327.31 (90.4024)
Neigh time (%) = 99.7269 (6.79236)
Comm  time (%) = 8.67126 (0.590596)
Outpt time (%) = 0.63097 (0.0429751)
Other time (%) = 31.8854 (2.1717)

unfix		1

# Melt half the system
region  liquid block INF INF INF INF INF 10
group	liquid_group region liquid
3979 atoms in group liquid_group

# Heat up one side to Tmelt to make sure it is melted
fix 2 liquid_group npt temp 2000 2000 1 z 0 0 10 drag 1.0
run		50000
Step Temp TotEng PotEng Press Pxx Pyy Pzz Lx Ly Lz
50000    1047.9807   -24826.599    -25910.16    199.13457   -21.314363    324.85901    293.85906    41.373534    41.373534    82.747067
Averages over the last 251 of 501 rows, steps 75000 to 100000:
Temp TotEng PotEng Press Pxx Pyy Pzz Lx Ly Lz
1959.46 -22511 -24537 4249.62 6361.96 6241.37 145.528 41.3735 41.3735 89.211
Loop time of 1386.95 on 1 procs for 50000 steps with 8000 atoms

Pair  time (%) = 1257.47 (90.6642)
Neigh time (%) = 96.0275 (6.92364)
Comm  time (%) = 8.35031 (0.602063)
Outpt time (%) = 0.624292 (0.0450118)
Other time (%) = 24.4803 (1.76505)

unfix		2

# Cool it down again to trial melting temperature
fix 3 liquid_group npt temp 1050     1050     1 z 0 0 10 drag 1.0
run		50000
Step Temp TotEng PotEng Press Pxx Pyy Pzz Lx Ly Lz
100000    2029.0528   -22427.817    -24525.76    3751.2735    5909.2831    5029.7735      314.764    41.373534    41.373534    89.443461
Averages over the last 251 of 501 rows, steps 125000 to 150000:
Temp TotEng PotEng Press Pxx Pyy Pzz Lx Ly Lz
1063.98 -24540.6 -25640.7 509.538 696.728 853.27 -21.3839 41.3735 41.3735 83.8244
Loop time of 1410.08 on 1 procs for 50000 steps with 8000 atoms

Pair  time (%) = 1278.42 (90.6629)
Neigh time (%) = 98.1996 (6.96412)
Comm  time (%) = 8.32756 (0.590574)
Outpt time (%) = 0.687423 (0.0487506)
Other time (%) = 24.4458 (1.73364)

unfix		3

# Run simulation
fix		4 all nph x 0 0 10 y 0 0 10 z 0 0 1 couple xy drag 1.0
run		200000
Step Temp TotEng PotEng Press Pxx Pyy Pzz Lx Ly Lz
150000    1050.4877   -24585.475   -25671.629    238.24618    511.21318    394.30277    -190.7774    41.373534    41.373534    83.718908
Averages over the last 1001 of 2001 rows, steps 250000 to 350000:
Temp TotEng PotEng Press Pxx Pyy Pzz Lx Ly Lz
1020.61 -24593.7 -25649 2.41528 -16.8107 10.1962 13.8603 41.2189 41.2189 84.4589
Loop time of 5701.76 on 1 procs for 200000 steps with 8000 atoms

Pair  time (%) = 5150.27 (90.3277)
Neigh time (%) = 396.122 (6.94737)
Comm  time (%) = 32.3257 (0.566943)
Outpt time (%) = 2.50011 (0.043848)
Other time (%) = 120.544 (2.11415)

unfix		4
