LAMMPS (13 Jan 2014)
dimension       3
boundary        p p p
units           metal

atom_style	atomic
neighbor	0.3 bin
neigh_modify	every 10 delay 0 check no

# Number of steps for the equilibration steps
variable        eqsteps equal 50000

# Number of steps to run our NPH simulation
variable        simsteps equal 200000

# Our trial melting temperature
variable	T equal 1125.0
variable	T2 equal 2*1125

# Some high temperature to melt the crystal
variable	Tmelt equal 2000.0

#System size
variable	nx equal 10
variable	ny equal 10
variable	nz equal 20
variable	nzhalf equal 20*0.5
variable	a equal 4.050
variable	length equal 20*4.05

lattice		fcc 4.05
Lattice spacing in x,y,z = 4.05 4.05 4.05

region         box block 0 10 0 10 0 20
create_box     1 box
Created orthogonal box = (0 0 0) to (40.5 40.5 81)
create_atoms   1 box
Created 8000 atoms

mass		1 26.9815

pair_style	eam/alloy
pair_coeff	* * Al_potential.alloy Al

velocity	all create 2250 1337

# Create a dump file. This can be visualized with
# e.g. OVITO (http://www.ovito.org/)
dump		id all atom 1000 atomsdump

# 1 fs timestep
timestep	0.001
thermo_style	custom step temp etotal pe press pxx pyy pzz lx ly lz

# output every 100th timestep
thermo		100

# Equilibration the whole system to the trial melting temperature
fix		1 all npt temp 1125 1125 1 iso 0 0 3 drag 1.0
run		50000
Step Temp TotEng PotEng Press Pxx Pyy Pzz Lx Ly Lz
0         2250    -24850.86   -27177.252    14639.073    14469.109    14451.527    14996.583         40.5         40.5           81
Averages over the last 251 of 501 rows, steps 25000 to 50000:
Temp TotEng PotEng Press Pxx Pyy Pzz Lx Ly Lz
1125.57 -24632.2 -25796 -9.87912 -12.3725 -39.5042 22.2393 41.4672 41.4672 82.9343
Loop time of 1460.3 on 1 procs for 50000 steps with 8000 atoms

Pair  time (%) = 1319.69 (90.3713)
Neigh time (%) = 99.5529 (6.81729)
Comm  time (%) = 8.64571 (0.59205)
Outpt time (%) = 0.624113 (0.0427386)
Other time (%) = 31.7847 (2.17658)

unfix		1

# Melt half the system
region  liquid block INF INF INF INF INF 10
group	liquid_group region liquid
4008 atoms in group liquid_group

# Heat up one side to Tmelt to make sure it is melted
fix 2 liquid_group npt temp 2000 2000 1 z 0 0 10 drag 1.0
run		50000
Step Temp TotEng PotEng Press Pxx Pyy Pzz Lx Ly Lz
50000    1126.6505   -24632.839   -25797.742   -34.952123    66.184618   -275.87967    104.83868    41.465084    41.465084    82.930168
Averages over the last 251 of 501 rows, steps 75000 to 100000:
Temp TotEng PotEng Press Pxx Pyy Pzz Lx Ly Lz
1966.77 -22469.9 -24503.4 3693.69 6012.62 5006.33 62.1055 41.4651 41.4651 89.0694
Loop time of 1382.49 on 1 procs for 50000 steps with 8000 atoms

Pair  time (%) = 1253.07 (90.6388)
Neigh time (%) = 95.954 (6.94069)
Comm  time (%) = 8.33941 (0.603219)
Outpt time (%) = 0.635651 (0.0459788)
Other time (%) = 24.4879 (1.7713)

unfix		2

# Cool it down again to trial melting temperature
fix 3 liquid_group npt temp 1125     1125     1 z 0 0 10 drag 1.0
run		50000
Step Temp TotEng PotEng Press Pxx Pyy Pzz Lx Ly Lz
100000     1996.211   -22403.743   -24467.729    3943.0096    5850.7159    5101.8693    876.44359    41.465084    41.465084     89.21079
Averages over the last 251 of 501 rows, steps 125000 to 150000:
Temp TotEng PotEng Press Pxx Pyy Pzz Lx Ly Lz
1135.31 -24338 -25511.9 292.358 1009.93 -128.866 -3.98423 41.4651 41.4651 84.0809
Loop time of 1406.21 on 1 procs for 50000 steps with 8000 atoms

Pair  time (%) = 1274.52 (90.635)
Neigh time (%) = 98.2169 (6.98449)
Comm  time (%) = 8.33821 (0.592954)
Outpt time (%) = 0.622967 (0.044301)
Other time (%) = 24.5138 (1.74324)

unfix		3

# Run simulation
fix		4 all nph x 0 0 10 y 0 0 10 z 0 0 1 couple xy drag 1.0
run		200000
Step Temp TotEng PotEng Press Pxx Pyy Pzz Lx Ly Lz
150000    1138.1561   -24367.998   -25544.797    78.073625    972.22738   -561.87736   -176.12914    41.465084    41.465084    83.979809
Averages over the last 1001 of 2001 rows, steps 250000 to 350000:
Temp TotEng PotEng Press Pxx Pyy Pzz Lx Ly Lz
999.615 -24379.2 -25412.7 -93.088 -159.867 -125.677 6.2797 40.8924 40.8924 86.8022
Loop time of 5651.96 on 1 procs for 200000 steps with 8000 atoms

Pair  time (%) = 5099.74 (90.2295)
Neigh time (%) = 396.685 (7.01853)
Comm  time (%) = 32.6566 (0.577792)
Outpt time (%) = 2.59394 (0.0458945)
Other time (%) = 120.287 (2.12824)

unfix		4
