LAMMPS (13 Jan 2014)
dimension       3
boundary        p p p
units           metal

atom_style	atomic
neighbor	0.3 bin
neigh_modify	every 10 delay 0 check no

# Number of steps for the equilibration steps
variable        eqsteps equal 50000

# Number of steps to run our NPH simulation
variable        simsteps equal 200000

# Our trial melting temperature
variable	T equal 800.0
variable	T2 equal 2*800

# Some high temperature to melt the crystal
variable	Tmelt equal 2000.0

#System size
variable	nx equal 4
variable	ny equal 4
variable	nz equal 20
variable	nzhalf equal 20*0.5
variable	a equal 4.050
variable	length equal 20*4.05

lattice		fcc 4.05
Lattice spacing in x,y,z = 4.05 4.05 4.05

region         box block 0 4 0 4 0 20
create_box     1 box
Created orthogonal box = (0 0 0) to (16.2 16.2 81)
create_atoms   1 box
Created 1280 atoms

mass		1 26.9815

pair_style	eam/alloy
pair_coeff	* * Al_potential.alloy Al

velocity	all create 1600 1337

# Create a dump file. This can be visualized with
# e.g. OVITO (http://www.ovito.org/)
dump		id all atom 1000 atomsdump

# 1 fs timestep
timestep	0.001
thermo_style	custom step temp etotal pe press pxx pyy pzz lx ly lz

# output every 100th timestep
thermo		100

# Equilibration the whole system to the trial melting temperature
fix		1 all npt temp 800 800 1 iso 0 0 3 drag 1.0
run		50000
Step Temp TotEng PotEng Press Pxx Pyy Pzz Lx Ly Lz
0         1600   -4083.8423   -4348.3603    9227.3094     8859.737      9124.79    9697.4013         16.2         16.2           81
Averages over the last 251 of 501 rows, steps 25000 to 50000:
Temp TotEng PotEng Press Pxx Pyy Pzz Lx Ly Lz
799.426 -4069.77 -4201.94 3.44322 -175.736 1.59599 184.47 16.4431 16.4431 82.2153
Loop time of 247.887 on 1 procs for 50000 steps with 1280 atoms

Pair  time (%) = 219.427 (88.519)
Neigh time (%) = 19.6513 (7.92754)
Comm  time (%) = 3.30579 (1.33359)
Outpt time (%) = 0.111982 (0.0451744)
Other time (%) = 5.39071 (2.17466)

unfix		1

# Melt half the system
region  liquid block INF INF INF INF INF 10
group	liquid_group region liquid
638 atoms in group liquid_group

# Heat up one side to Tmelt to make sure it is melted
fix 2 liquid_group npt temp 2000 2000 1 z 0 0 10 drag 1.0
run		50000
Step Temp TotEng PotEng Press Pxx Pyy Pzz Lx Ly Lz
50000    826.76796   -4069.6916   -4206.3759   -384.55325   -910.17952   -280.13298    36.652745    16.441469    16.441469    82.207345
Averages over the last 251 of 501 rows, steps 75000 to 100000:
Temp TotEng PotEng Press Pxx Pyy Pzz Lx Ly Lz
1996.13 -3601.31 -3931.31 4354.36 6648.36 6614.02 -199.298 16.4415 16.4415 90.145
Loop time of 229.685 on 1 procs for 50000 steps with 1280 atoms

Pair  time (%) = 203.585 (88.6369)
Neigh time (%) = 18.5962 (8.09638)
Comm  time (%) = 3.17769 (1.3835)
Outpt time (%) = 0.109911 (0.0478529)
Other time (%) = 4.21567 (1.83541)

unfix		2

# Cool it down again to trial melting temperature
fix 3 liquid_group npt temp 800     800     1 z 0 0 10 drag 1.0
run		50000
Step Temp TotEng PotEng Press Pxx Pyy Pzz Lx Ly Lz
100000    1988.0892   -3597.1811   -3925.8594    5272.0247    6224.5825     8793.781     797.7107    16.441469    16.441469    90.195824
Averages over the last 251 of 501 rows, steps 125000 to 150000:
Temp TotEng PotEng Press Pxx Pyy Pzz Lx Ly Lz
812.329 -4066 -4200.29 -11.7976 -215.657 143.631 36.633 16.4415 16.4415 82.299
Loop time of 239.387 on 1 procs for 50000 steps with 1280 atoms

Pair  time (%) = 212.548 (88.7885)
Neigh time (%) = 19.2874 (8.05697)
Comm  time (%) = 3.21976 (1.345)
Outpt time (%) = 0.109929 (0.0459212)
Other time (%) = 4.22188 (1.76362)

unfix		3

# Run simulation
fix		4 all nph x 0 0 10 y 0 0 10 z 0 0 1 couple xy drag 1.0
run		200000
Step Temp TotEng PotEng Press Pxx Pyy Pzz Lx Ly Lz
150000    808.23522   -4070.8419   -4204.4624   -284.72265    202.10658   -1011.5968   -44.677786    16.441469    16.441469    82.225959
Averages over the last 1001 of 2001 rows, steps 250000 to 350000:
Temp TotEng PotEng Press Pxx Pyy Pzz Lx Ly Lz
791.258 -4073.32 -4204.13 -12.3187 -11.7542 -19.2885 -5.91347 16.4283 16.4283 82.3066
Loop time of 966.082 on 1 procs for 200000 steps with 1280 atoms

Pair  time (%) = 860.17 (89.0369)
Neigh time (%) = 72.9378 (7.54985)
Comm  time (%) = 12.1196 (1.25451)
Outpt time (%) = 0.439466 (0.0454895)
Other time (%) = 20.4153 (2.11321)

unfix		4
