LAMMPS (13 Jan 2014)
dimension       3
boundary        p p p
units           metal

atom_style	atomic
neighbor	0.3 bin
neigh_modify	every 10 delay 0 check no

# Number of steps for the equilibration steps
variable        eqsteps equal 50000

# Number of steps to run our NPH simulation
variable        simsteps equal 200000

# Our trial melting temperature
variable	T equal 800.0
variable	T2 equal 2*800

# Some high temperature to melt the crystal
variable	Tmelt equal 2000.0

#System size
variable	nx equal 10
variable	ny equal 10
variable	nz equal 20
variable	nzhalf equal 20*0.5
variable	a equal 4.050
variable	length equal 20*4.05

lattice		fcc 4.05
Lattice spacing in x,y,z = 4.05 4.05 4.05

region         box block 0 10 0 10 0 20
create_box     1 box
Created orthogonal box = (0 0 0) to (40.5 40.5 81)
create_atoms   1 box
Created 8000 atoms

mass		1 26.9815

pair_style	eam/alloy
pair_coeff	* * Al_potential.alloy Al

velocity	all create 1600 1337

# Create a dump file. This can be visualized with
# e.g. OVITO (http://www.ovito.org/)
dump		id all atom 1000 atomsdump

# 1 fs timestep
timestep	0.001
thermo_style	custom step temp etotal pe press pxx pyy pzz lx ly lz

# output every 100th timestep
thermo		100

# Equilibration the whole system to the trial melting temperature
fix		1 all npt temp 800 800 1 iso 0 0 3 drag 1.0
run		50000
Step Temp TotEng PotEng Press Pxx Pyy Pzz Lx Ly Lz
0         1600   -25522.929   -27177.252    9236.0385     9115.175    9102.6725     9490.268         40.5         40.5           81
Averages over the last 251 of 501 rows, steps 25000 to 50000:
Temp TotEng PotEng Press Pxx Pyy Pzz Lx Ly Lz
799.556 -25434.8 -26261.5 11.3633 26.7172 7.87387 -0.501201 41.1082 41.1082 82.2163
Loop time of 1497.42 on 1 procs for 50000 steps with 8000 atoms

Pair  time (%) = 1355.87 (90.5467)
Neigh time (%) = 100.272 (6.69632)
Comm  time (%) = 8.67505 (0.579332)
Outpt time (%) = 0.653318 (0.0436295)
Other time (%) = 31.9558 (2.13406)

unfix		1

# Melt half the system
region  liquid block INF INF INF INF INF 10
group	liquid_group region liquid
4011 atoms in group liquid_group

# Heat up one side to Tmelt to make sure it is melted
fix 2 liquid_group npt temp 2000 2000 1 z 0 0 10 drag 1.0
run		50000
Step Temp TotEng PotEng Press Pxx Pyy Pzz Lx Ly Lz
50000    798.41394   -25434.892   -26260.414    48.174757    101.59059   -108.40347    151.33715    41.109095    41.109095     82.21819
Averages over the last 251 of 501 rows, steps 75000 to 100000:
Temp TotEng PotEng Press Pxx Pyy Pzz Lx Ly Lz
1904.29 -22676.8 -24645.7 4750.78 7134.15 6768.01 350.18 41.1091 41.1091 89.601
Loop time of 1404.54 on 1 procs for 50000 steps with 8000 atoms

Pair  time (%) = 1274.46 (90.7389)
Neigh time (%) = 96.4113 (6.86427)
Comm  time (%) = 8.41717 (0.599284)
Outpt time (%) = 0.623901 (0.0444204)
Other time (%) = 24.6234 (1.75313)

unfix		2

# Cool it down again to trial melting temperature
fix 3 liquid_group npt temp 800     800     1 z 0 0 10 drag 1.0
run		50000
Step Temp TotEng PotEng Press Pxx Pyy Pzz Lx Ly Lz
100000     2002.518   -22478.325   -24548.832    5199.8102    7545.8904    7801.5585    251.98161    41.109095    41.109095    90.106005
Averages over the last 251 of 501 rows, steps 125000 to 150000:
Temp TotEng PotEng Press Pxx Pyy Pzz Lx Ly Lz
849.562 -25301.7 -26180.1 24.7174 218.78 -85.5399 -59.0879 41.1091 41.1091 82.5816
Loop time of 1440.71 on 1 procs for 50000 steps with 8000 atoms

Pair  time (%) = 1308.17 (90.8007)
Neigh time (%) = 98.8772 (6.86309)
Comm  time (%) = 8.46335 (0.587443)
Outpt time (%) = 0.624809 (0.0433682)
Other time (%) = 24.5693 (1.70536)

unfix		3

# Run simulation
fix		4 all nph x 0 0 10 y 0 0 10 z 0 0 1 couple xy drag 1.0
run		200000
Step Temp TotEng PotEng Press Pxx Pyy Pzz Lx Ly Lz
150000     803.8104    -25432.19   -26263.292    8.0539433   -17.495817   -310.93757    352.59521    41.109095    41.109095    82.212373
Averages over the last 1001 of 2001 rows, steps 250000 to 350000:
Temp TotEng PotEng Press Pxx Pyy Pzz Lx Ly Lz
799.912 -25434.6 -26261.7 4.61241 5.0361 10.4491 -1.64801 41.1093 41.1093 82.2119
Loop time of 5887.65 on 1 procs for 200000 steps with 8000 atoms

Pair  time (%) = 5335.8 (90.6271)
Neigh time (%) = 396.429 (6.73323)
Comm  time (%) = 32.15 (0.546058)
Outpt time (%) = 2.50569 (0.0425585)
Other time (%) = 120.759 (2.05106)

unfix		4
