LAMMPS (13 Jan 2014)
dimension       3
boundary        p p p
units           metal

atom_style	atomic
neighbor	0.3 bin
neigh_modify	every 10 delay 0 check no

# Number of steps for the equilibration steps
variable        eqsteps equal 50000

# Number of steps to run our NPH simulation
variable        simsteps equal 200000

# Our trial melting temperature
variable	T equal 1400.0
variable	T2 equal 2*1400

# Some high temperature to melt the crystal
variable	Tmelt equal 2000.0

#System size
variable	nx equal 10
variable	ny equal 10
variable	nz equal 20
variable	nzhalf equal 20*0.5
variable	a equal 4.050
variable	length equal 20*4.05

lattice		fcc 4.05
Lattice spacing in x,y,z = 4.05 4.05 4.05

region         box block 0 10 0 10 0 20
create_box     1 box
Created orthogonal box = (0 0 0) to (40.5 40.5 81)
create_atoms   1 box
Created 8000 atoms

mass		1 26.9815

pair_style	eam/alloy
pair_coeff	* * Al_potential.alloy Al

velocity	all create 2800 1337

# Create a dump file. This can be visualized with
# e.g. OVITO (http://www.ovito.org/)
dump		id all atom 1000 atomsdump

# 1 fs timestep
timestep	0.001
thermo_style	custom step temp etotal pe press pxx pyy pzz lx ly lz

# output every 100th timestep
thermo		100

# Equilibration the whole system to the trial melting temperature
fix		1 all npt temp 1400 1400 1 iso 0 0 3 drag 1.0
run		50000
Step Temp TotEng PotEng Press Pxx Pyy Pzz Lx Ly Lz
0         2800   -24282.186   -27177.252    19210.871     18999.36    18977.481    19655.773         40.5         40.5           81
Averages over the last 251 of 501 rows, steps 25000 to 50000:
Temp TotEng PotEng Press Pxx Pyy Pzz Lx Ly Lz
1399.85 -23229.5 -24676.9 -8.24533 -56.7252 14.7194 17.2699 42.3443 42.3443 84.6886
Loop time of 1403.08 on 1 procs for 50000 steps with 8000 atoms

Pair  time (%) = 1263.6 (90.0592)
Neigh time (%) = 98.9007 (7.04885)
Comm  time (%) = 8.17858 (0.582903)
Outpt time (%) = 0.616163 (0.0439151)
Other time (%) = 31.7812 (2.26511)

unfix		1

# Melt half the system
region  liquid block INF INF INF INF INF 10
group	liquid_group region liquid
3998 atoms in group liquid_group

# Heat up one side to Tmelt to make sure it is melted
fix 2 liquid_group npt temp 2000 2000 1 z 0 0 10 drag 1.0
run		50000
Step Temp TotEng PotEng Press Pxx Pyy Pzz Lx Ly Lz
50000    1382.8822    -23228.24   -24658.074   -155.69873   -156.69528    32.255971   -342.65689    42.358344    42.358344    84.716689
Averages over the last 251 of 501 rows, steps 75000 to 100000:
Temp TotEng PotEng Press Pxx Pyy Pzz Lx Ly Lz
1998.06 -21933.3 -23999.2 4044.14 5703.2 6474.83 -45.6238 42.3583 42.3583 88.0518
Loop time of 1331.31 on 1 procs for 50000 steps with 8000 atoms

Pair  time (%) = 1202.71 (90.3403)
Neigh time (%) = 95.4836 (7.17217)
Comm  time (%) = 7.9745 (0.598998)
Outpt time (%) = 0.615908 (0.0462634)
Other time (%) = 24.5268 (1.84231)

unfix		2

# Cool it down again to trial melting temperature
fix 3 liquid_group npt temp 1400     1400     1 z 0 0 10 drag 1.0
run		50000
Step Temp TotEng PotEng Press Pxx Pyy Pzz Lx Ly Lz
100000    2016.7551   -21930.963    -24016.19    4061.3108     5746.025    6833.9525   -396.04525    42.358344    42.358344    88.033111
Averages over the last 251 of 501 rows, steps 125000 to 150000:
Temp TotEng PotEng Press Pxx Pyy Pzz Lx Ly Lz
1401.9 -23203 -24652.5 241.179 61.6156 688.241 -26.3189 42.3583 42.3583 84.7063
Loop time of 1350.46 on 1 procs for 50000 steps with 8000 atoms

Pair  time (%) = 1220.63 (90.386)
Neigh time (%) = 96.9021 (7.1755)
Comm  time (%) = 7.92354 (0.58673)
Outpt time (%) = 0.616733 (0.0456684)
Other time (%) = 24.3902 (1.80607)

unfix		3

# Run simulation
fix		4 all nph x 0 0 10 y 0 0 10 z 0 0 1 couple xy drag 1.0
run		200000
Step Temp TotEng PotEng Press Pxx Pyy Pzz Lx Ly Lz
150000    1390.2735   -23206.785   -24644.261    455.22547    207.56688    746.33925    411.77029    42.358344    42.358344    84.701903
Averages over the last 1001 of 2001 rows, steps 250000 to 350000:
Temp TotEng PotEng Press Pxx Pyy Pzz Lx Ly Lz
1403.57 -23221.2 -24672.4 -0.49944 26.9162 -20.9722 -7.4423 42.3862 42.3862 84.5485
Loop time of 5525.92 on 1 procs for 200000 steps with 8000 atoms

Pair  time (%) = 4974.98 (90.0298)
Neigh time (%) = 395.757 (7.16183)
Comm  time (%) = 32.4227 (0.586738)
Outpt time (%) = 2.46633 (0.044632)
Other time (%) = 120.299 (2.177)

unfix		4
