LAMMPS (13 Jan 2014)
dimension       3
boundary        p p p
units           metal

atom_style	atomic
neighbor	0.3 bin
neigh_modify	every 10 delay 0 check no

# Number of steps for the equilibration steps
variable        eqsteps equal 50000

# Number of steps to run our NPH simulation
variable        simsteps equal 200000

# Our trial melting temperature
variable	T equal 925.0
variable	T2 equal 2*925

# Some high temperature to melt the crystal
variable	Tmelt equal 2000.0

#System size
variable	nx equal 10
variable	ny equal 10
variable	nz equal 20
variable	nzhalf equal 20*0.5
variable	a equal 4.050
variable	length equal 20*4.05

lattice		fcc 4.05
Lattice spacing in x,y,z = 4.05 4.05 4.05

region         box block 0 10 0 10 0 20
create_box     1 box
Created orthogonal box = (0 0 0) to (40.5 40.5 81)
create_atoms   1 box
Created 8000 atoms

mass		1 26.9815

pair_style	eam/alloy
pair_coeff	* * Al_potential.alloy Al

velocity	all create 1850 1337

# Create a dump file. This can be visualized with
# e.g. OVITO (http://www.ovito.org/)
dump		id all atom 1000 atomsdump

# 1 fs timestep
timestep	0.001
thermo_style	custom step temp etotal pe press pxx pyy pzz lx ly lz

# output every 100th timestep
thermo		100

# Equilibration the whole system to the trial melting temperature
fix		1 all npt temp 925 925 1 iso 0 0 3 drag 1.0
run		50000
Step Temp TotEng PotEng Press Pxx Pyy Pzz Lx Ly Lz
0         1850   -25264.441   -27177.252    11314.129     11174.38    11159.924    11608.081         40.5         40.5           81
Averages over the last 251 of 501 rows, steps 25000 to 50000:
Temp TotEng PotEng Press Pxx Pyy Pzz Lx Ly Lz
925.049 -25137.5 -26094 -0.507611 55.0138 -20.4828 -36.0538 41.2368 41.2368 82.4736
Loop time of 1476.16 on 1 procs for 50000 steps with 8000 atoms

Pair  time (%) = 1335.15 (90.4475)
Neigh time (%) = 99.9265 (6.76935)
Comm  time (%) = 8.65154 (0.586084)
Outpt time (%) = 0.645607 (0.0437355)
Other time (%) = 31.7864 (2.15332)

unfix		1

# Melt half the system
region  liquid block INF INF INF INF INF 10
group	liquid_group region liquid
3995 atoms in group liquid_group

# Heat up one side to Tmelt to make sure it is melted
fix 2 liquid_group npt temp 2000 2000 1 z 0 0 10 drag 1.0
run		50000
Step Temp TotEng PotEng Press Pxx Pyy Pzz Lx Ly Lz
50000    921.16549   -25137.599   -26090.039   -163.68825   -357.44741    111.72762   -245.34496    41.241014    41.241014    82.482028
Averages over the last 251 of 501 rows, steps 75000 to 100000:
Temp TotEng PotEng Press Pxx Pyy Pzz Lx Ly Lz
1937.33 -22560.1 -24563.2 4657.95 7017.96 6813.02 142.868 41.241 41.241 89.5152
Loop time of 1393.67 on 1 procs for 50000 steps with 8000 atoms

Pair  time (%) = 1264.2 (90.71)
Neigh time (%) = 96.0475 (6.8917)
Comm  time (%) = 8.36724 (0.600375)
Outpt time (%) = 0.649596 (0.0466105)
Other time (%) = 24.4082 (1.75136)

unfix		2

# Cool it down again to trial melting temperature
fix 3 liquid_group npt temp 925     925     1 z 0 0 10 drag 1.0
run		50000
Step Temp TotEng PotEng Press Pxx Pyy Pzz Lx Ly Lz
100000    1987.1348   -22428.077   -24482.679    5058.0763    7089.8883    7595.1329    489.20776    41.241014    41.241014    89.891559
Averages over the last 251 of 501 rows, steps 125000 to 150000:
Temp TotEng PotEng Press Pxx Pyy Pzz Lx Ly Lz
962.395 -24885.6 -25880.6 390.126 685.841 570.2 -85.6623 41.241 41.241 83.2952
Loop time of 1422.14 on 1 procs for 50000 steps with 8000 atoms

Pair  time (%) = 1290.55 (90.747)
Neigh time (%) = 98.1897 (6.90435)
Comm  time (%) = 8.38158 (0.589363)
Outpt time (%) = 0.63813 (0.044871)
Other time (%) = 24.3814 (1.71442)

unfix		3

# Run simulation
fix		4 all nph x 0 0 10 y 0 0 10 z 0 0 1 couple xy drag 1.0
run		200000
Step Temp TotEng PotEng Press Pxx Pyy Pzz Lx Ly Lz
150000    948.26256   -25042.705   -26023.162   -90.026122    88.814381      208.078   -566.97075    41.241014    41.241014    82.763193
Averages over the last 1001 of 2001 rows, steps 250000 to 350000:
Temp TotEng PotEng Press Pxx Pyy Pzz Lx Ly Lz
960.943 -25046.6 -26040.2 -1.03962 -3.00402 1.02212 -1.13697 41.272 41.272 82.5786
Loop time of 5813.16 on 1 procs for 200000 steps with 8000 atoms

Pair  time (%) = 5263.56 (90.5456)
Neigh time (%) = 395.055 (6.79587)
Comm  time (%) = 32.1224 (0.552581)
Outpt time (%) = 2.53991 (0.0436925)
Other time (%) = 119.882 (2.06225)

unfix		4
