LAMMPS (13 Jan 2014)
dimension       3
boundary        p p p
units           metal

atom_style	atomic
neighbor	0.3 bin
neigh_modify	every 10 delay 0 check no

# Number of steps for the equilibration steps
variable        eqsteps equal 50000

# Number of steps to run our NPH simulation
variable        simsteps equal 200000

# Our trial melting temperature
variable	T equal 975.0
variable	T2 equal 2*975

# Some high temperature to melt the crystal
variable	Tmelt equal 2000.0

#System size
variable	nx equal 10
variable	ny equal 10
variable	nz equal 20
variable	nzhalf equal 20*0.5
variable	a equal 4.050
variable	length equal 20*4.05

lattice		fcc 4.05
Lattice spacing in x,y,z = 4.05 4.05 4.05

region         box block 0 10 0 10 0 20
create_box     1 box
Created orthogonal box = (0 0 0) to (40.5 40.5 81)
create_atoms   1 box
Created 8000 atoms

mass		1 26.9815

pair_style	eam/alloy
pair_coeff	* * Al_potential.alloy Al

velocity	all create 1950 1337

# Create a dump file. This can be visualized with
# e.g. OVITO (http://www.ovito.org/)
dump		id all atom 1000 atomsdump

# 1 fs timestep
timestep	0.001
thermo_style	custom step temp etotal pe press pxx pyy pzz lx ly lz

# output every 100th timestep
thermo		100

# Equilibration the whole system to the trial melting temperature
fix		1 all npt temp 975 975 1 iso 0 0 3 drag 1.0
run		50000
Step Temp TotEng PotEng Press Pxx Pyy Pzz Lx Ly Lz
0         1950   -25161.046   -27177.252    12145.365    11998.062    11982.825    12455.207         40.5         40.5           81
Averages over the last 251 of 501 rows, steps 25000 to 50000:
Temp TotEng PotEng Press Pxx Pyy Pzz Lx Ly Lz
975.883 -25014.9 -26023.9 -22.7569 -45.402 -28.65 5.78119 41.291 41.291 82.582
Loop time of 1472.99 on 1 procs for 50000 steps with 8000 atoms

Pair  time (%) = 1332.1 (90.4351)
Neigh time (%) = 99.8673 (6.77989)
Comm  time (%) = 8.67169 (0.588713)
Outpt time (%) = 0.622826 (0.0422831)
Other time (%) = 31.7289 (2.15404)

unfix		1

# Melt half the system
region  liquid block INF INF INF INF INF 10
group	liquid_group region liquid
3981 atoms in group liquid_group

# Heat up one side to Tmelt to make sure it is melted
fix 2 liquid_group npt temp 2000 2000 1 z 0 0 10 drag 1.0
run		50000
Step Temp TotEng PotEng Press Pxx Pyy Pzz Lx Ly Lz
50000    963.65473   -25015.476   -26011.849    244.96176    617.08747   -99.326135    217.12396    41.288953    41.288953    82.577906
Averages over the last 251 of 501 rows, steps 75000 to 100000:
Temp TotEng PotEng Press Pxx Pyy Pzz Lx Ly Lz
1944.39 -22542.2 -24552.7 4410.55 6757.89 6340.47 133.308 41.289 41.289 89.4236
Loop time of 1399.21 on 1 procs for 50000 steps with 8000 atoms

Pair  time (%) = 1269.79 (90.7503)
Neigh time (%) = 96.0739 (6.86627)
Comm  time (%) = 8.36963 (0.598167)
Outpt time (%) = 0.61559 (0.0439954)
Other time (%) = 24.3644 (1.74129)

unfix		2

# Cool it down again to trial melting temperature
fix 3 liquid_group npt temp 975     975     1 z 0 0 10 drag 1.0
run		50000
Step Temp TotEng PotEng Press Pxx Pyy Pzz Lx Ly Lz
100000    1995.9175   -22425.736   -24489.419    4535.1706    7842.7396     6998.759   -1235.9867    41.288953    41.288953    89.771811
Averages over the last 251 of 501 rows, steps 125000 to 150000:
Temp TotEng PotEng Press Pxx Pyy Pzz Lx Ly Lz
1002.38 -24739.7 -25776.1 358.403 782.847 386.027 -93.6651 41.289 41.289 83.5597
Loop time of 1424.43 on 1 procs for 50000 steps with 8000 atoms

Pair  time (%) = 1292.81 (90.7592)
Neigh time (%) = 98.319 (6.90231)
Comm  time (%) = 8.36894 (0.587527)
Outpt time (%) = 0.616294 (0.0432659)
Other time (%) = 24.3253 (1.70772)

unfix		3

# Run simulation
fix		4 all nph x 0 0 10 y 0 0 10 z 0 0 1 couple xy drag 1.0
run		200000
Step Temp TotEng PotEng Press Pxx Pyy Pzz Lx Ly Lz
150000     1016.732   -24855.768    -25907.02   -556.86762   -480.31648   -98.860469   -1091.4259    41.288953    41.288953    83.161284
Averages over the last 1001 of 2001 rows, steps 250000 to 350000:
Temp TotEng PotEng Press Pxx Pyy Pzz Lx Ly Lz
1037.32 -24859.5 -25932.1 -6.40864 1.39094 -7.97118 -12.6457 41.3627 41.3627 82.718
Loop time of 5804.08 on 1 procs for 200000 steps with 8000 atoms

Pair  time (%) = 5254.11 (90.5244)
Neigh time (%) = 395.39 (6.81227)
Comm  time (%) = 32.1029 (0.553109)
Outpt time (%) = 2.45581 (0.0423118)
Other time (%) = 120.024 (2.06793)

unfix		4
