LAMMPS (13 Jan 2014)
dimension       3
boundary        p p p
units           metal

atom_style	atomic
neighbor	0.3 bin
neigh_modify	every 10 delay 0 check no

# Number of steps for the equilibration steps
variable        eqsteps equal 50000

# Number of steps to run our NPH simulation
variable        simsteps equal 200000

# Our trial melting temperature
variable	T equal 775.0
variable	T2 equal 2*775

# Some high temperature to melt the crystal
variable	Tmelt equal 2000.0

#System size
variable	nx equal 10
variable	ny equal 10
variable	nz equal 20
variable	nzhalf equal 20*0.5
variable	a equal 4.050
variable	length equal 20*4.05

lattice		fcc 4.05
Lattice spacing in x,y,z = 4.05 4.05 4.05

region         box block 0 10 0 10 0 20
create_box     1 box
Created orthogonal box = (0 0 0) to (40.5 40.5 81)
create_atoms   1 box
Created 8000 atoms

mass		1 26.9815

pair_style	eam/alloy
pair_coeff	* * Al_potential.alloy Al

velocity	all create 1550 1337

# Create a dump file. This can be visualized with
# e.g. OVITO (http://www.ovito.org/)
dump		id all atom 1000 atomsdump

# 1 fs timestep
timestep	0.001
thermo_style	custom step temp etotal pe press pxx pyy pzz lx ly lz

# output every 100th timestep
thermo		100

# Equilibration the whole system to the trial melting temperature
fix		1 all npt temp 775 775 1 iso 0 0 3 drag 1.0
run		50000
Step Temp TotEng PotEng Press Pxx Pyy Pzz Lx Ly Lz
0         1550   -25574.626   -27177.252    8820.4205     8703.334    8691.2222    9066.7053         40.5         40.5           81
Averages over the last 251 of 501 rows, steps 25000 to 50000:
Temp TotEng PotEng Press Pxx Pyy Pzz Lx Ly Lz
775.268 -25492.9 -26294.5 -8.12114 -28.7875 20.4847 -16.0607 41.0835 41.0835 82.1669
Loop time of 1495.22 on 1 procs for 50000 steps with 8000 atoms

Pair  time (%) = 1353.39 (90.515)
Neigh time (%) = 100.419 (6.716)
Comm  time (%) = 8.75504 (0.585537)
Outpt time (%) = 0.636024 (0.0425373)
Other time (%) = 32.0116 (2.14094)

unfix		1

# Melt half the system
region  liquid block INF INF INF INF INF 10
group	liquid_group region liquid
4017 atoms in group liquid_group

# Heat up one side to Tmelt to make sure it is melted
fix 2 liquid_group npt temp 2000 2000 1 z 0 0 10 drag 1.0
run		50000
Step Temp TotEng PotEng Press Pxx Pyy Pzz Lx Ly Lz
50000    772.68132   -25492.684     -26291.6    11.836975    69.818331   -185.24755    150.94014    41.082809    41.082809    82.165617
Averages over the last 251 of 501 rows, steps 75000 to 100000:
Temp TotEng PotEng Press Pxx Pyy Pzz Lx Ly Lz
1903.11 -22673.7 -24641.5 4998.81 7303.56 7332.11 360.76 41.0828 41.0828 89.6846
Loop time of 1408.2 on 1 procs for 50000 steps with 8000 atoms

Pair  time (%) = 1277.99 (90.7533)
Neigh time (%) = 96.4055 (6.84601)
Comm  time (%) = 8.47531 (0.601854)
Outpt time (%) = 0.670066 (0.0475832)
Other time (%) = 24.6615 (1.75128)

unfix		2

# Cool it down again to trial melting temperature
fix 3 liquid_group npt temp 775     775     1 z 0 0 10 drag 1.0
run		50000
Step Temp TotEng PotEng Press Pxx Pyy Pzz Lx Ly Lz
100000    1994.9998   -22472.254   -24534.988    4882.7813    6718.7595    7117.7482    811.83637    41.082809    41.082809    90.287349
Averages over the last 251 of 501 rows, steps 125000 to 150000:
Temp TotEng PotEng Press Pxx Pyy Pzz Lx Ly Lz
822.11 -25352.6 -26202.6 76.6883 146.668 122.41 -39.0125 41.0828 41.0828 82.5612
Loop time of 1447.85 on 1 procs for 50000 steps with 8000 atoms

Pair  time (%) = 1314.96 (90.8217)
Neigh time (%) = 99.0054 (6.83809)
Comm  time (%) = 8.54673 (0.590304)
Outpt time (%) = 0.631565 (0.0436209)
Other time (%) = 24.7046 (1.7063)

unfix		3

# Run simulation
fix		4 all nph x 0 0 10 y 0 0 10 z 0 0 1 couple xy drag 1.0
run		200000
Step Temp TotEng PotEng Press Pxx Pyy Pzz Lx Ly Lz
150000    776.65343   -25473.054   -26276.077   -149.71283    -493.8227   -59.240875     103.9251    41.082809    41.082809    82.258901
Averages over the last 1001 of 2001 rows, steps 250000 to 350000:
Temp TotEng PotEng Press Pxx Pyy Pzz Lx Ly Lz
782.37 -25475.4 -26284.3 -0.0624637 -4.65115 -9.64648 14.1102 41.0878 41.0878 82.1948
Loop time of 5906.67 on 1 procs for 200000 steps with 8000 atoms

Pair  time (%) = 5354.09 (90.6448)
Neigh time (%) = 396.412 (6.71126)
Comm  time (%) = 32.6354 (0.552518)
Outpt time (%) = 2.52062 (0.0426741)
Other time (%) = 121.014 (2.04877)

unfix		4
