LAMMPS (13 Jan 2014)
dimension       3
boundary        p p p
units           metal

atom_style	atomic
neighbor	0.3 bin
neigh_modify	every 10 delay 0 check no

# Number of steps for the equilibration steps
variable        eqsteps equal 50000

# Number of steps to run our NPH simulation
variable        simsteps equal 200000

# Our trial melting temperature
variable	T equal 1350.0
variable	T2 equal 2*1350

# Some high temperature to melt the crystal
variable	Tmelt equal 2000.0

#System size
variable	nx equal 10
variable	ny equal 10
variable	nz equal 20
variable	nzhalf equal 20*0.5
variable	a equal 4.050
variable	length equal 20*4.05

lattice		fcc 4.05
Lattice spacing in x,y,z = 4.05 4.05 4.05

region         box block 0 10 0 10 0 20
create_box     1 box
Created orthogonal box = (0 0 0) to (40.5 40.5 81)
create_atoms   1 box
Created 8000 atoms

mass		1 26.9815

pair_style	eam/alloy
pair_coeff	* * Al_potential.alloy Al

velocity	all create 2700 1337

# Create a dump file. This can be visualized with
# e.g. OVITO (http://www.ovito.org/)
dump		id all atom 1000 atomsdump

# 1 fs timestep
timestep	0.001
thermo_style	custom step temp etotal pe press pxx pyy pzz lx ly lz

# output every 100th timestep
thermo		100

# Equilibration the whole system to the trial melting temperature
fix		1 all npt temp 1350 1350 1 iso 0 0 3 drag 1.0
run		50000
Step Temp TotEng PotEng Press Pxx Pyy Pzz Lx Ly Lz
0         2700   -24385.582   -27177.252    18379.635    18175.678     18154.58    18808.647         40.5         40.5           81
Averages over the last 251 of 501 rows, steps 25000 to 50000:
Temp TotEng PotEng Press Pxx Pyy Pzz Lx Ly Lz
1348.93 -23363 -24757.7 2.25982 167.238 -54.5598 -105.899 42.2695 42.2695 84.5391
Loop time of 1406.6 on 1 procs for 50000 steps with 8000 atoms

Pair  time (%) = 1266.97 (90.0729)
Neigh time (%) = 98.9613 (7.03547)
Comm  time (%) = 8.24636 (0.58626)
Outpt time (%) = 0.621235 (0.0441656)
Other time (%) = 31.8068 (2.26125)

unfix		1

# Melt half the system
region  liquid block INF INF INF INF INF 10
group	liquid_group region liquid
4012 atoms in group liquid_group

# Heat up one side to Tmelt to make sure it is melted
fix 2 liquid_group npt temp 2000 2000 1 z 0 0 10 drag 1.0
run		50000
Step Temp TotEng PotEng Press Pxx Pyy Pzz Lx Ly Lz
50000    1347.1096   -23354.998   -24747.845   -159.09173   -492.44237    566.99939   -551.83221    42.282853    42.282853    84.565706
Averages over the last 251 of 501 rows, steps 75000 to 100000:
Temp TotEng PotEng Press Pxx Pyy Pzz Lx Ly Lz
1997.4 -21980.9 -24046.1 4125.27 6189.14 6180.33 6.33274 42.2829 42.2829 88.1068
Loop time of 1336.9 on 1 procs for 50000 steps with 8000 atoms

Pair  time (%) = 1208.21 (90.374)
Neigh time (%) = 95.5113 (7.14423)
Comm  time (%) = 7.99809 (0.598256)
Outpt time (%) = 0.620319 (0.0463998)
Other time (%) = 24.5602 (1.8371)

unfix		2

# Cool it down again to trial melting temperature
fix 3 liquid_group npt temp 1350     1350     1 z 0 0 10 drag 1.0
run		50000
Step Temp TotEng PotEng Press Pxx Pyy Pzz Lx Ly Lz
100000    1989.5843   -21976.792   -24033.927    3994.9528    6264.9816    6330.3729   -610.49603    42.282853    42.282853    88.142379
Averages over the last 251 of 501 rows, steps 125000 to 150000:
Temp TotEng PotEng Press Pxx Pyy Pzz Lx Ly Lz
1352.63 -23361.9 -24760.4 -66.5406 -57.2437 -135.992 -6.38617 42.2829 42.2829 84.4972
Loop time of 1357.05 on 1 procs for 50000 steps with 8000 atoms

Pair  time (%) = 1226.98 (90.4151)
Neigh time (%) = 97.0761 (7.15347)
Comm  time (%) = 7.94169 (0.585218)
Outpt time (%) = 0.620615 (0.0457326)
Other time (%) = 24.4331 (1.80046)
