LAMMPS (13 Jan 2014)
dimension       3
boundary        p p p
units           metal

atom_style	atomic
neighbor	0.3 bin
neigh_modify	every 10 delay 0 check no

# Number of steps for the equilibration steps
variable        eqsteps equal 50000

# Number of steps to run our NPH simulation
variable        simsteps equal 200000

# Our trial melting temperature
variable	T equal 1023.4
variable	T2 equal 2*1023.4

# Some high temperature to melt the crystal
variable	Tmelt equal 2000.0

#System size
variable	nx equal 10
variable	ny equal 10
variable	nz equal 20
variable	nzhalf equal 20*1.0
variable	a equal 2.87
variable	length equal 20*2.87

lattice		fcc 2.87
Lattice spacing in x,y,z = 2.87 2.87 2.87

region         box block 0 10 0 10 0 20
create_box     1 box
Created orthogonal box = (0 0 0) to (28.7 28.7 57.4)
create_atoms   1 box
Created 8000 atoms

mass		1 26.9815

pair_style	eam/alloy
pair_coeff	* * Al_potential.alloy Al

velocity	all create 2046.8 1337

# Create a dump file. This can be visualized with
# e.g. OVITO (http://www.ovito.org/)
dump		id all atom 1000 atomsdump1

# 1 fs timestep
timestep	0.001
thermo_style	custom step temp etotal pe press pxx pyy pzz lx ly lz

# output every 100th timestep
thermo		100

# Equilibration the whole system to the trial melting temperature
fix		1 all npt temp 1023.4 1023.4 1 iso 0 0 3 drag 1.0
run		50000
Step Temp TotEng PotEng Press Pxx Pyy Pzz Lx Ly Lz
0       2046.8    48645.577    46529.285    6875512.8    6875078.3    6875033.4    6876426.7         28.7         28.7         57.4
Averages over the last 251 of 501 rows, steps 25000 to 50000:
Temp TotEng PotEng Press Pxx Pyy Pzz Lx Ly Lz
1013.09 -24920.4 -25967.9 0.617244 -3.04532 57.6457 -52.7487 41.3337 41.3337 82.6674
Loop time of 1528.7 on 1 procs for 50000 steps with 8000 atoms

Pair  time (%) = 1384.26 (90.5511)
Neigh time (%) = 103.293 (6.75694)
Comm  time (%) = 8.69199 (0.568586)
Outpt time (%) = 0.621329 (0.0406442)
Other time (%) = 31.8394 (2.08278)

unfix		1

# Heat up one side to Tmelt to make sure it is melted
fix 		2 all npt temp 2000 2000 1 z 0 0 10 drag 1.0
run		50000
Step Temp TotEng PotEng Press Pxx Pyy Pzz Lx Ly Lz
50000    1028.8327   -24895.506    -25959.27   -319.93484    -326.4204   -442.86929   -190.51482    41.347403    41.347403    82.694805
Averages over the last 251 of 501 rows, steps 75000 to 100000:
Temp TotEng PotEng Press Pxx Pyy Pzz Lx Ly Lz
1986.1 -21761.5 -23815 194.576 224.596 211.727 147.403 41.3474 41.3474 94.4461
Loop time of 1364.58 on 1 procs for 50000 steps with 8000 atoms

Pair  time (%) = 1227.96 (89.988)
Neigh time (%) = 93.9519 (6.88502)
Comm  time (%) = 8.30459 (0.60858)
Outpt time (%) = 0.624215 (0.045744)
Other time (%) = 33.7413 (2.47264)

unfix		2

# Cool it down again to trial melting temperature
fix 		3 all npt temp 1023.4     1023.4     1 z 0 0 10 drag 1.0
run		50000
Step Temp TotEng PotEng Press Pxx Pyy Pzz Lx Ly Lz
100000    1993.1453    -21721.15   -23781.967   -198.75781   -274.90601    908.11194   -1229.4794    41.347403    41.347403    94.675542
Averages over the last 251 of 501 rows, steps 125000 to 150000:
Temp TotEng PotEng Press Pxx Pyy Pzz Lx Ly Lz
1023.93 -24219.6 -25278.3 64.3875 23.333 118.706 51.1233 41.3474 41.3474 85.4783
Loop time of 1398.46 on 1 procs for 50000 steps with 8000 atoms

Pair  time (%) = 1259.85 (90.0888)
Neigh time (%) = 96.0827 (6.87063)
Comm  time (%) = 8.16303 (0.583718)
Outpt time (%) = 0.618792 (0.0442482)
Other time (%) = 33.7394 (2.41262)

unfix		3

# Run simulation
fix		4 all npt temp 1023.4     1023.4     1 z 0 0 10 drag 1.0
run		200000
Step Temp TotEng PotEng Press Pxx Pyy Pzz Lx Ly Lz
150000    1016.3242   -24221.335   -25272.166     303.4865   -675.85689    688.95061    897.36579    41.347403    41.347403    85.457056
Averages over the last 1001 of 2001 rows, steps 250000 to 350000:
Temp TotEng PotEng Press Pxx Pyy Pzz Lx Ly Lz
1023.41 -24218.5 -25276.7 -20.9367 -15.3374 -34.831 -12.6418 41.3474 41.3474 85.4998
Loop time of 5649.98 on 1 procs for 200000 steps with 8000 atoms

Pair  time (%) = 5092.85 (90.1393)
Neigh time (%) = 387.084 (6.85107)
Comm  time (%) = 32.5866 (0.576757)
Outpt time (%) = 2.4819 (0.0439275)
Other time (%) = 134.976 (2.38896)

unfix		4
