LAMMPS (13 Jan 2014)
dimension       3
boundary        p p p
units           metal

atom_style	atomic
neighbor	0.3 bin
neigh_modify	every 10 delay 0 check no

# Number of steps for the equilibration steps
variable        eqsteps equal 50000

# Number of steps to run our NPH simulation
variable        simsteps equal 200000

# Our trial melting temperature
variable	T equal 1150.0
variable	T2 equal 2*1150

# Some high temperature to melt the crystal
variable	Tmelt equal 2000.0

#System size
variable	nx equal 4
variable	ny equal 4
variable	nz equal 20
variable	nzhalf equal 20*0.5
variable	a equal 4.050
variable	length equal 20*4.05

lattice		fcc 4.05
Lattice spacing in x,y,z = 4.05 4.05 4.05

region         box block 0 4 0 4 0 20
create_box     1 box
Created orthogonal box = (0 0 0) to (16.2 16.2 81)
create_atoms   1 box
Created 1280 atoms

mass		1 26.9815

pair_style	eam/alloy
pair_coeff	* * Al_potential.alloy Al

velocity	all create 2300 1337

# Create a dump file. This can be visualized with
# e.g. OVITO (http://www.ovito.org/)
dump		id all atom 1000 atomsdump

# 1 fs timestep
timestep	0.001
thermo_style	custom step temp etotal pe press pxx pyy pzz lx ly lz

# output every 100th timestep
thermo		100

# Equilibration the whole system to the trial melting temperature
fix		1 all npt temp 1150 1150 1 iso 0 0 3 drag 1.0
run		50000
Step Temp TotEng PotEng Press Pxx Pyy Pzz Lx Ly Lz
0         2300   -3968.1157   -4348.3603    15042.143    14513.757    14894.771      15717.9         16.2         16.2           81
Averages over the last 251 of 501 rows, steps 25000 to 50000:
Temp TotEng PotEng Press Pxx Pyy Pzz Lx Ly Lz
1150.05 -3931.06 -4121.19 4.01486 -89.1661 -105.972 207.183 16.5989 16.5989 82.9945
Loop time of 239.291 on 1 procs for 50000 steps with 1280 atoms

Pair  time (%) = 211.726 (88.4805)
Neigh time (%) = 18.731 (7.8277)
Comm  time (%) = 3.29765 (1.37809)
Outpt time (%) = 0.110368 (0.046123)
Other time (%) = 5.42603 (2.26755)

unfix		1

# Melt half the system
region  liquid block INF INF INF INF INF 10
group	liquid_group region liquid
635 atoms in group liquid_group

# Heat up one side to Tmelt to make sure it is melted
fix 2 liquid_group npt temp 2000 2000 1 z 0 0 10 drag 1.0
run		50000
Step Temp TotEng PotEng Press Pxx Pyy Pzz Lx Ly Lz
50000    1170.2064   -3931.5961    -4125.059   -412.15324    12.844849   -168.28421   -1081.0204    16.599212    16.599212    82.996059
Averages over the last 251 of 501 rows, steps 75000 to 100000:
Temp TotEng PotEng Press Pxx Pyy Pzz Lx Ly Lz
2002.55 -3590.17 -3921.24 4286.06 6758.99 6176.64 -77.4595 16.5992 16.5992 88.8967
Loop time of 225.958 on 1 procs for 50000 steps with 1280 atoms

Pair  time (%) = 200.281 (88.6362)
Neigh time (%) = 18.1905 (8.05039)
Comm  time (%) = 3.16548 (1.40091)
Outpt time (%) = 0.113732 (0.0503333)
Other time (%) = 4.20781 (1.86221)

unfix		2

# Cool it down again to trial melting temperature
fix 3 liquid_group npt temp 1150     1150     1 z 0 0 10 drag 1.0
run		50000
Step Temp TotEng PotEng Press Pxx Pyy Pzz Lx Ly Lz
100000    1982.1388    -3590.945   -3918.6396    3657.4281    6198.7208     5179.765   -406.20138    16.599212    16.599212    88.935937
Averages over the last 251 of 501 rows, steps 125000 to 150000:
Temp TotEng PotEng Press Pxx Pyy Pzz Lx Ly Lz
1153.63 -3897.15 -4087.87 1148.62 1686.69 1729.75 29.4269 16.5992 16.5992 83.7239
Loop time of 231.138 on 1 procs for 50000 steps with 1280 atoms

Pair  time (%) = 205.288 (88.8165)
Neigh time (%) = 18.3505 (7.93922)
Comm  time (%) = 3.16901 (1.37105)
Outpt time (%) = 0.112051 (0.048478)
Other time (%) = 4.21767 (1.82474)
