LAMMPS (13 Jan 2014)
dimension       3
boundary        p p p
units           metal

atom_style	atomic
neighbor	0.3 bin
neigh_modify	every 10 delay 0 check no

# Number of steps for the equilibration steps
variable        eqsteps equal 50000

# Number of steps to run our NPH simulation
variable        simsteps equal 200000

# Our trial melting temperature
variable	T equal 850.0
variable	T2 equal 2*850

# Some high temperature to melt the crystal
variable	Tmelt equal 2000.0

#System size
variable	nx equal 4
variable	ny equal 4
variable	nz equal 20
variable	nzhalf equal 20*0.5
variable	a equal 4.050
variable	length equal 20*4.05

lattice		fcc 4.05
Lattice spacing in x,y,z = 4.05 4.05 4.05

region         box block 0 4 0 4 0 20
create_box     1 box
Created orthogonal box = (0 0 0) to (16.2 16.2 81)
create_atoms   1 box
Created 1280 atoms

mass		1 26.9815

pair_style	eam/alloy
pair_coeff	* * Al_potential.alloy Al

velocity	all create 1700 1337

# Create a dump file. This can be visualized with
# e.g. OVITO (http://www.ovito.org/)
dump		id all atom 1000 atomsdump

# 1 fs timestep
timestep	0.001
thermo_style	custom step temp etotal pe press pxx pyy pzz lx ly lz

# output every 100th timestep
thermo		100

# Equilibration the whole system to the trial melting temperature
fix		1 all npt temp 850 850 1 iso 0 0 3 drag 1.0
run		50000
Step Temp TotEng PotEng Press Pxx Pyy Pzz Lx Ly Lz
0         1700     -4067.31   -4348.3603        10058    9667.4542     9949.073    10557.473         16.2         16.2           81
Averages over the last 251 of 501 rows, steps 25000 to 50000:
Temp TotEng PotEng Press Pxx Pyy Pzz Lx Ly Lz
849.308 -4051.04 -4191.45 12.793 -10.753 -162.639 211.771 16.4631 16.4631 82.3154
Loop time of 246.924 on 1 procs for 50000 steps with 1280 atoms

Pair  time (%) = 218.462 (88.4734)
Neigh time (%) = 19.626 (7.94817)
Comm  time (%) = 3.32083 (1.34488)
Outpt time (%) = 0.111567 (0.0451829)
Other time (%) = 5.40352 (2.18833)

unfix		1

# Melt half the system
region  liquid block INF INF INF INF INF 10
group	liquid_group region liquid
643 atoms in group liquid_group

# Heat up one side to Tmelt to make sure it is melted
fix 2 liquid_group npt temp 2000 2000 1 z 0 0 10 drag 1.0
run		50000
Step Temp TotEng PotEng Press Pxx Pyy Pzz Lx Ly Lz
50000    844.77589   -4051.2112   -4190.8727    296.82645    389.83443    46.294755    454.35017    16.461397    16.461397    82.306986
Averages over the last 251 of 501 rows, steps 75000 to 100000:
Temp TotEng PotEng Press Pxx Pyy Pzz Lx Ly Lz
1993.82 -3594.28 -3923.91 3947.67 5631.9 6257.4 -46.2883 16.4614 16.4614 90.2248
Loop time of 229.105 on 1 procs for 50000 steps with 1280 atoms

Pair  time (%) = 202.925 (88.5729)
Neigh time (%) = 18.6124 (8.12397)
Comm  time (%) = 3.19727 (1.39555)
Outpt time (%) = 0.123596 (0.0539474)
Other time (%) = 4.24667 (1.85359)

unfix		2

# Cool it down again to trial melting temperature
fix 3 liquid_group npt temp 850     850     1 z 0 0 10 drag 1.0
run		50000
Step Temp TotEng PotEng Press Pxx Pyy Pzz Lx Ly Lz
100000    1995.8789    -3594.174   -3924.1402    4897.1511    6256.9175    7817.7571    616.77871    16.461397    16.461397    90.097299
Averages over the last 251 of 501 rows, steps 125000 to 150000:
Temp TotEng PotEng Press Pxx Pyy Pzz Lx Ly Lz
866.17 -4044.93 -4188.12 -871.63 -1805.45 -818.434 8.99715 16.4614 16.4614 82.5447
Loop time of 238.276 on 1 procs for 50000 steps with 1280 atoms

Pair  time (%) = 211.367 (88.7069)
Neigh time (%) = 19.281 (8.0919)
Comm  time (%) = 3.23245 (1.3566)
Outpt time (%) = 0.148295 (0.0622366)
Other time (%) = 4.24688 (1.78234)

unfix		3

# Run simulation
fix		4 all nph x 0 0 10 y 0 0 10 z 0 0 1 couple xy drag 1.0
run		200000
Step Temp TotEng PotEng Press Pxx Pyy Pzz Lx Ly Lz
150000    832.38686   -4050.5213   -4188.1346   -843.82085   -2172.8583   -637.75693    279.15272    16.461397    16.461397    82.499626
Averages over the last 1001 of 2001 rows, steps 250000 to 350000:
Temp TotEng PotEng Press Pxx Pyy Pzz Lx Ly Lz
843.704 -4053.47 -4192.95 -12.4885 45.1594 -76.1407 -6.48438 16.4456 16.4456 82.4522
Loop time of 965.412 on 1 procs for 200000 steps with 1280 atoms

Pair  time (%) = 859.025 (88.9801)
Neigh time (%) = 73.2489 (7.58732)
Comm  time (%) = 12.1867 (1.26234)
Outpt time (%) = 0.457347 (0.0473732)
Other time (%) = 20.4944 (2.12286)

unfix		4
